&NAM_CONFIO
  LCDF4 = .TRUE.,
  LLFIOUT = .FALSE.,
  LLFIREAD = .FALSE.,
/ 

&NAM_CONFZ
  NZ_VERB = 0,
  NZ_PROC = 0,
  NB_PROCIO_R = 1,
  NB_PROCIO_W = 1,
  MPI_BUFFER_SIZE = 40,
  LMNH_MPI_BSEND = .TRUE.,
  LMNH_MPI_ALLTOALLV_REMAP = .FALSE.,
  NZ_SPLITTING = 10,
/ 

&NAM_LUNITn
  CINIFILE = 'init_AMMA_',
  CINIFILEPGD = 'init_AMMA__PGD',
/ 

&NAM_DIMn_PRE
  NIMAX = 1,
  NJMAX = 1,
/ 

&NAM_DYNn_PRE
  CPRESOPT = 'CRESI',
  NITR = 4,
  XRELAX = 1.,
  LRES = .FALSE.,
  XRES = 1.E-07,
/ 

&NAM_GRID_PRE
  XLON0 = 2.18,
  XLAT0 = 13.47,
  XBETA = 0.,
  XRPK = 1.,
  XLONORI = 350.,
  XLATORI = 37.,
/ 

&NAM_VER_GRID
  LTHINSHELL = .TRUE.,
  NKMAX = 130,
  YZGRID_TYPE = 'MANUAL',
  ZDZGRD = 25,
  ZDZTOP = 25,
  ZZMAX_STRGRD = 0.,
  ZSTRGRD = 0.,
  ZSTRTOP = 0.,
  LSLEVE = .FALSE.,
  XLEN1 = 7500.,
  XLEN2 = 2500.,
/ 

&NAM_CONF_PRE
  LCARTESIAN = .TRUE.,
  LPACK = .TRUE.,
  CEQNSYS = 'DUR',
  NVERB = 10,
  CIDEAL = 'RSOU',
  CZS = 'FLAT',
  LBOUSS = .FALSE.,
  LPERTURB = .FALSE.,
  LFORCING = .TRUE.,
  LSHIFT = .FALSE.,
  L2D_ADV_FRC = .FALSE.,
  L2D_REL_FRC = .FALSE.,
  NHALO = 1,
  JPHEXT = 1,
/ 

&NAM_PERT_PRE
  CPERT_KIND = 'WH',
  XAMPLITH = 1.5,
  XAMPLIRV = 0.0,
  XAMPLIUV = 1.0834,
  XAMPLIWH = 0.1,
  NKWH = 2,
  LSET_RHU = .TRUE.,
  XCENTERZ = 2000.,
  XRADX = 10000.,
  XRADY = 10000.,
  XRADZ = 2000.,
  LWH_LBXU = .FALSE.,
  LWH_LBYV = .FALSE.,
/ 

&NAM_GRIDH_PRE
  XDELTAX = 50000,
  XDELTAY = 50000,
  XHMAX = 0.,
  NEXPX = 3,
  NEXPY = 1,
  XAX = 10000.,
  XAY = 10000.,
  NIZS = 5,
  NJZS = 5,
/ 

&NAM_GRn_PRE
  CSURF = 'EXTE',
/ 

&NAM_CONFn
  LUSERV = .TRUE.,
  LUSERC = .FALSE.,
  LUSERR = .FALSE.,
  LUSERI = .FALSE.,
  LUSERS = .FALSE.,
  LUSERG = .FALSE.,
  LUSERH = .FALSE.,
  LUSECI = .FALSE.,
/ 

&NAM_LBCn
  CLBCX(1) = 'CYCL',
  CLBCX(2) = 'CYCL',
  CLBCY(1) = 'CYCL',
  CLBCY(2) = 'CYCL',
  NLBLX(:) = 1,
  NLBLY(:) = 1,
  XCPHASE = 20.,
  XCPHASE_PBL = 0.,
  XPOND = 1.0,
/ 

&NAM_PGD_SCHEMES
  CSEA = 'FLUX',
  CNATURE = 'TSZ0',
/ 

&NAM_COVER
  XUNIF_COVER(1) = 1.,
  XUNIF_COVER(6) = 0.,
/ 

&NAM_SEABATHY
  XUNIF_SEABATHY = 5.,
/ 

&NAM_PREP_SEAFLUX
  XSST_UNIF = 280.,
/ 

&NAM_DATA_SEAFLUX
  LSST_DATA = .FALSE.,
  NTIME_SST = 0,
  NYEAR_SST(1) = 1980,
  NMONTH_SST(1) = 1,
  NDAY_SST(1) = 1,
  XTIME_SST(1) = 0.,
  XUNIF_SST(1) = 280.,
/ 

&NAM_FRAC
  LECOCLIMAP = .TRUE.,
  XUNIF_NATURE = 1.,
/ 

&NAM_DATA_TSZ0
  NTIME = 0,
  XUNIF_DTS(1) = -0.250,
/ 

&NAM_DATA_ISBA
  NTIME = 0,
  XUNIF_Z0(1,1) = 0,
/ 

&NAM_ISBA
  XUNIF_CLAY = 1.,
  XUNIF_SAND = 0.,
  XUNIF_RUNOFFB = 0.5,
  CISBA = '2-L',
  CPHOTO = 'NON',
  NPATCH = 1,
  NGROUND_LAYER = 2,
/ 

&NAM_PREP_SURF_ATM
  NYEAR = 1980,
  NMONTH = 1,
  NDAY = 1,
  XTIME = 0.,
/ 

&NAM_PREP_ISBA
  XHUG_SURF = 0.,
  XHUG_ROOT = 0.,
  XHUG_DEEP = 0.,
  XHUGI_SURF = 1.,
  XHUGI_ROOT = 1.,
  XHUGI_DEEP = 1.,
  XTG_SURF = 280,
  XTG_ROOT = 280,
  XTG_DEEP = 280,
  LISBA_CANOPY = .FALSE.,
  NYEAR = 1980,
  NMONTH = 1,
  NDAY = 1,
  XTIME = 0.,
/ 

&NAM_DEEPSOIL
  LPHYSDOMC = .FALSE.,
  LDEEPSOIL = .FALSE.,
/ 

ZHAT
0
20
42
66
92
120
150
182
217
256
298
342
390
440
490
540
590
640
690
740
790
840
890
940
990
1040
1090
1140
1190
1240
1290
1340
1390
1440
1490
1540
1590
1640
1690
1740
1790
1840
1890
1940
1990
2040
2090
2140
2190
2240
2290
2340
2390
2440
2490
2545
2605
2671
2743
2822
2910
3012
3142
3292
3464
3662
3890
4140
4390
4640
4890
5140
5390
5640
5890
6140
6390
6640
6890
7140
7390
7640
7890
8140
8390
8640
8890
9140
9390
9640
9890
10140
10390
10640
10890
11140
11390
11640
11890
12140
12390
12640
12890
13140
13390
13640
13890
14140
14390
14640
14890
15140
15390
15640
15890
16140
16390
16640
16890
17140
17390
17640
17890
18140
18390
18640
18890
19140
19390
19640
19890

RSOU
2006 07 10 21600
ZUVTHDMR   
0.00 
98800.00 
300.20 
0.01800000 
36   
           0.0           1.00           1.90
         200.0           3.60           5.60
         300.0           5.50           5.80
         500.0           4.30           4.90
        1000.0           1.30           2.50
        1300.0          -0.60           1.10
        1800.0          -3.60          -1.20
        2500.0          -8.60          -1.40
        3000.0         -12.20          -1.50
        3700.0         -16.70          -1.70
        4200.0         -14.10          -2.40
        5000.0          -8.00          -3.60
        6000.0          -6.80          -1.90
        7500.0          -4.90           0.60
        8000.0          -4.30           1.40
        9000.0          -6.00           2.00
        9500.0          -7.20          -0.40
       10000.0          -8.50          -2.80
       11000.0         -11.10          -6.30
       12000.0         -12.00          -4.60
       15000.0         -12.80           0.40
       15500.0         -12.90           1.20
       16000.0         -13.00           2.00
       17000.0         -13.00           1.80
       18000.0         -13.00           1.50
       20000.0         -13.00           1.00
       21000.0         -13.00           1.00
       22000.0         -13.00           1.00
       23000.0         -13.00           1.00
       24000.0         -13.00           1.00
       25000.0         -13.00           1.00
       30000.0         -13.00           1.00
       35000.0         -13.00           1.00
       40000.0         -13.00           1.00
       45000.0         -13.00           1.00
       50000.0         -13.00           1.00
36   
         200.0         301.80     0.01800000
         300.0         302.50     0.01800000
         500.0         304.10     0.01800000
        1000.0         308.40     0.01280000
        1300.0         309.30     0.01000000
        1800.0         311.30     0.00880000
        2500.0         314.10     0.00720000
        3000.0         314.60     0.00600000
        3700.0         315.40     0.00480000
        4200.0         317.40     0.00380000
        5000.0         321.70     0.00280000
        6000.0         327.10     0.00100000
        7500.0         334.50     0.00060000
        8000.0         337.00     0.00060000
        9000.0         340.00     0.00050000
        9500.0         341.50     0.00040000
       10000.0         343.20     0.00030000
       11000.0         346.40     0.00020000
       12000.0         349.50     0.00000000
       15000.0         361.00     0.00000000
       15500.0         363.60     0.00000000
       16000.0         369.00     0.00000000
       17000.0         390.50     0.00000000
       18000.0         416.50     0.00000000
       20000.0         488.50     0.00000000
       21000.0         502.90     0.00000000
       22000.0         536.00     0.00000000
       23000.0         566.10     0.00000000
       24000.0         597.00     0.00000000
       25000.0         627.60     0.00000000
       30000.0         821.90     0.00000000
       35000.0        1049.70     0.00000000
       40000.0        1337.80     0.00000000
       45000.0        1567.30     0.00000000
       50000.0        1947.00     0.00000000

ZFRC
37
2006 07 10 21600
0.00 
98800.00 
300.20 
0.01800000 
36   
           0.0           0.00           0.00           0.00        0.00000        0.00000  -0.0001100000   0.0000000800  0.0  0.0
         200.0           0.00           0.00           0.00        0.00000        0.00000  -0.0001100000   0.0000000800  0.0  0.0
         300.0           0.00           0.00           0.00        0.00000        0.00000  -0.0001000000   0.0000000700  0.0  0.0
         500.0           0.00           0.00           0.00        0.00000        0.00000  -0.0001000000   0.0000000700  0.0  0.0
        1000.0           0.00           0.00           0.00        0.00000        0.00000  -0.0000900000   0.0000000600  0.0  0.0
        1300.0           0.00           0.00           0.00        0.00000        0.00000  -0.0000700000   0.0000000400  0.0  0.0
        1800.0           0.00           0.00           0.00        0.00000        0.00000  -0.0000500000   0.0000000300  0.0  0.0
        2500.0           0.00           0.00           0.00        0.00000        0.00000  -0.0000300000   0.0000000100  0.0  0.0
        3000.0           0.00           0.00           0.00        0.00000        0.00000  -0.0000100000   0.0000000000  0.0  0.0
        3700.0           0.00           0.00           0.00        0.00000        0.00000  -0.0000100000   0.0000000000  0.0  0.0
        4200.0           0.00           0.00           0.00        0.00000        0.00000  -0.0000100000   0.0000000000  0.0  0.0
        5000.0           0.00           0.00           0.00        0.00000        0.00000  -0.0000100000   0.0000000000  0.0  0.0
        6000.0           0.00           0.00           0.00        0.00000        0.00000  -0.0000100000   0.0000000000  0.0  0.0
        7500.0           0.00           0.00           0.00        0.00000        0.00000   0.0000000000   0.0000000000  0.0  0.0
        8000.0           0.00           0.00           0.00        0.00000        0.00000   0.0000000000   0.0000000000  0.0  0.0
        9000.0           0.00           0.00           0.00        0.00000        0.00000   0.0000000000   0.0000000000  0.0  0.0
        9500.0           0.00           0.00           0.00        0.00000        0.00000   0.0000000000   0.0000000000  0.0  0.0
       10000.0           0.00           0.00           0.00        0.00000        0.00000   0.0000000000   0.0000000000  0.0  0.0
       11000.0           0.00           0.00           0.00        0.00000        0.00000   0.0000000000   0.0000000000  0.0  0.0
       12000.0           0.00           0.00           0.00        0.00000        0.00000   0.0000000000   0.0000000000  0.0  0.0
       15000.0           0.00           0.00           0.00        0.00000        0.00000   0.0000000000   0.0000000000  0.0  0.0
       15500.0           0.00           0.00           0.00        0.00000        0.00000   0.0000000000   0.0000000000  0.0  0.0
       16000.0           0.00           0.00           0.00        0.00000        0.00000   0.0000000000   0.0000000000  0.0  0.0
       17000.0           0.00           0.00           0.00        0.00000        0.00000   0.0000000000   0.0000000000  0.0  0.0
       18000.0           0.00           0.00           0.00        0.00000        0.00000   0.0000000000   0.0000000000  0.0  0.0
       20000.0           0.00           0.00           0.00        0.00000        0.00000   0.0000000000   0.0000000000  0.0  0.0
       21000.0           0.00           0.00           0.00        0.00000        0.00000   0.0000000000   0.0000000000  0.0  0.0
       22000.0           0.00           0.00           0.00        0.00000        0.00000   0.0000000000   0.0000000000  0.0  0.0
       23000.0           0.00           0.00           0.00        0.00000        0.00000   0.0000000000   0.0000000000  0.0  0.0
       24000.0           0.00           0.00           0.00        0.00000        0.00000   0.0000000000   0.0000000000  0.0  0.0
       25000.0           0.00           0.00           0.00        0.00000        0.00000   0.0000000000   0.0000000000  0.0  0.0
       30000.0           0.00           0.00           0.00        0.00000        0.00000   0.0000000000   0.0000000000  0.0  0.0
       35000.0           0.00           0.00           0.00        0.00000        0.00000   0.0000000000   0.0000000000  0.0  0.0
       40000.0           0.00           0.00           0.00        0.00000        0.00000   0.0000000000   0.0000000000  0.0  0.0
       45000.0           0.00           0.00           0.00        0.00000        0.00000   0.0000000000   0.0000000000  0.0  0.0
       50000.0           0.00           0.00           0.00        0.00000        0.00000   0.0000000000   0.0000000000  0.0  0.0
2006 07 10 23400
0.00 
98800.00 
300.20 
0.01800000 
36   
           0.0           0.00           0.00           0.00        0.00000        0.00000  -0.0000966667   0.0000000733  0.0  0.0
         200.0           0.00           0.00           0.00        0.00000        0.00000  -0.0000966667   0.0000000733  0.0  0.0
         300.0           0.00           0.00           0.00        0.00000        0.00000  -0.0000883333   0.0000000650  0.0  0.0
         500.0           0.00           0.00           0.00        0.00000        0.00000  -0.0000883333   0.0000000633  0.0  0.0
        1000.0           0.00           0.00           0.00        0.00000        0.00000  -0.0000800000   0.0000000550  0.0  0.0
        1300.0           0.00           0.00           0.00        0.00000        0.00000  -0.0000616667   0.0000000367  0.0  0.0
        1800.0           0.00           0.00           0.00        0.00000        0.00000  -0.0000433333   0.0000000267  0.0  0.0
        2500.0           0.00           0.00           0.00        0.00000        0.00000  -0.0000266667   0.0000000083  0.0  0.0
        3000.0           0.00           0.00           0.00        0.00000        0.00000  -0.0000083333   0.0000000000  0.0  0.0
        3700.0           0.00           0.00           0.00        0.00000        0.00000  -0.0000083333   0.0000000000  0.0  0.0
        4200.0           0.00           0.00           0.00        0.00000        0.00000  -0.0000083333   0.0000000000  0.0  0.0
        5000.0           0.00           0.00           0.00        0.00000        0.00000  -0.0000083333   0.0000000000  0.0  0.0
        6000.0           0.00           0.00           0.00        0.00000        0.00000  -0.0000083333   0.0000000000  0.0  0.0
        7500.0           0.00           0.00           0.00        0.00000        0.00000   0.0000000000   0.0000000000  0.0  0.0
        8000.0           0.00           0.00           0.00        0.00000        0.00000   0.0000000000   0.0000000000  0.0  0.0
        9000.0           0.00           0.00           0.00        0.00000        0.00000   0.0000000000   0.0000000000  0.0  0.0
        9500.0           0.00           0.00           0.00        0.00000        0.00000   0.0000000000   0.0000000000  0.0  0.0
       10000.0           0.00           0.00           0.00        0.00000        0.00000   0.0000000000   0.0000000000  0.0  0.0
       11000.0           0.00           0.00           0.00        0.00000        0.00000   0.0000000000   0.0000000000  0.0  0.0
       12000.0           0.00           0.00           0.00        0.00000        0.00000   0.0000000000   0.0000000000  0.0  0.0
       15000.0           0.00           0.00           0.00        0.00000        0.00000   0.0000000000   0.0000000000  0.0  0.0
       15500.0           0.00           0.00           0.00        0.00000        0.00000   0.0000000000   0.0000000000  0.0  0.0
       16000.0           0.00           0.00           0.00        0.00000        0.00000   0.0000000000   0.0000000000  0.0  0.0
       17000.0           0.00           0.00           0.00        0.00000        0.00000   0.0000000000   0.0000000000  0.0  0.0
       18000.0           0.00           0.00           0.00        0.00000        0.00000   0.0000000000   0.0000000000  0.0  0.0
       20000.0           0.00           0.00           0.00        0.00000        0.00000   0.0000000000   0.0000000000  0.0  0.0
       21000.0           0.00           0.00           0.00        0.00000        0.00000   0.0000000000   0.0000000000  0.0  0.0
       22000.0           0.00           0.00           0.00        0.00000        0.00000   0.0000000000   0.0000000000  0.0  0.0
       23000.0           0.00           0.00           0.00        0.00000        0.00000   0.0000000000   0.0000000000  0.0  0.0
       24000.0           0.00           0.00           0.00        0.00000        0.00000   0.0000000000   0.0000000000  0.0  0.0
       25000.0           0.00           0.00           0.00        0.00000        0.00000   0.0000000000   0.0000000000  0.0  0.0
       30000.0           0.00           0.00           0.00        0.00000        0.00000   0.0000000000   0.0000000000  0.0  0.0
       35000.0           0.00           0.00           0.00        0.00000        0.00000   0.0000000000   0.0000000000  0.0  0.0
       40000.0           0.00           0.00           0.00        0.00000        0.00000   0.0000000000   0.0000000000  0.0  0.0
       45000.0           0.00           0.00           0.00        0.00000        0.00000   0.0000000000   0.0000000000  0.0  0.0
       50000.0           0.00           0.00           0.00        0.00000        0.00000   0.0000000000   0.0000000000  0.0  0.0
2006 07 10 25199
0.00 
98800.00 
300.20 
0.01800000 
36   
           0.0           0.00           0.00           0.00        0.00000        0.00000  -0.0000833333   0.0000000667  0.0  0.0
         200.0           0.00           0.00           0.00        0.00000        0.00000  -0.0000833333   0.0000000667  0.0  0.0
         300.0           0.00           0.00           0.00        0.00000        0.00000  -0.0000766667   0.0000000600  0.0  0.0
         500.0           0.00           0.00           0.00        0.00000        0.00000  -0.0000766667   0.0000000567  0.0  0.0
        1000.0           0.00           0.00           0.00        0.00000        0.00000  -0.0000700000   0.0000000500  0.0  0.0
        1300.0           0.00           0.00           0.00        0.00000        0.00000  -0.0000533333   0.0000000333  0.0  0.0
        1800.0           0.00           0.00           0.00        0.00000        0.00000  -0.0000366667   0.0000000233  0.0  0.0
        2500.0           0.00           0.00           0.00        0.00000        0.00000  -0.0000233333   0.0000000067  0.0  0.0
        3000.0           0.00           0.00           0.00        0.00000        0.00000  -0.0000066667   0.0000000000  0.0  0.0
        3700.0           0.00           0.00           0.00        0.00000        0.00000  -0.0000066667   0.0000000000  0.0  0.0
        4200.0           0.00           0.00           0.00        0.00000        0.00000  -0.0000066667   0.0000000000  0.0  0.0
        5000.0           0.00           0.00           0.00        0.00000        0.00000  -0.0000066667   0.0000000000  0.0  0.0
        6000.0           0.00           0.00           0.00        0.00000        0.00000  -0.0000066667   0.0000000000  0.0  0.0
        7500.0           0.00           0.00           0.00        0.00000        0.00000   0.0000000000   0.0000000000  0.0  0.0
        8000.0           0.00           0.00           0.00        0.00000        0.00000   0.0000000000   0.0000000000  0.0  0.0
        9000.0           0.00           0.00           0.00        0.00000        0.00000   0.0000000000   0.0000000000  0.0  0.0
        9500.0           0.00           0.00           0.00        0.00000        0.00000   0.0000000000   0.0000000000  0.0  0.0
       10000.0           0.00           0.00           0.00        0.00000        0.00000   0.0000000000   0.0000000000  0.0  0.0
       11000.0           0.00           0.00           0.00        0.00000        0.00000   0.0000000000   0.0000000000  0.0  0.0
       12000.0           0.00           0.00           0.00        0.00000        0.00000   0.0000000000   0.0000000000  0.0  0.0
       15000.0           0.00           0.00           0.00        0.00000        0.00000   0.0000000000   0.0000000000  0.0  0.0
       15500.0           0.00           0.00           0.00        0.00000        0.00000   0.0000000000   0.0000000000  0.0  0.0
       16000.0           0.00           0.00           0.00        0.00000        0.00000   0.0000000000   0.0000000000  0.0  0.0
       17000.0           0.00           0.00           0.00        0.00000        0.00000   0.0000000000   0.0000000000  0.0  0.0
       18000.0           0.00           0.00           0.00        0.00000        0.00000   0.0000000000   0.0000000000  0.0  0.0
       20000.0           0.00           0.00           0.00        0.00000        0.00000   0.0000000000   0.0000000000  0.0  0.0
       21000.0           0.00           0.00           0.00        0.00000        0.00000   0.0000000000   0.0000000000  0.0  0.0
       22000.0           0.00           0.00           0.00        0.00000        0.00000   0.0000000000   0.0000000000  0.0  0.0
       23000.0           0.00           0.00           0.00        0.00000        0.00000   0.0000000000   0.0000000000  0.0  0.0
       24000.0           0.00           0.00           0.00        0.00000        0.00000   0.0000000000   0.0000000000  0.0  0.0
       25000.0           0.00           0.00           0.00        0.00000        0.00000   0.0000000000   0.0000000000  0.0  0.0
       30000.0           0.00           0.00           0.00        0.00000        0.00000   0.0000000000   0.0000000000  0.0  0.0
       35000.0           0.00           0.00           0.00        0.00000        0.00000   0.0000000000   0.0000000000  0.0  0.0
       40000.0           0.00           0.00           0.00        0.00000        0.00000   0.0000000000   0.0000000000  0.0  0.0
       45000.0           0.00           0.00           0.00        0.00000        0.00000   0.0000000000   0.0000000000  0.0  0.0
       50000.0           0.00           0.00           0.00        0.00000        0.00000   0.0000000000   0.0000000000  0.0  0.0
2006 07 10 27000
0.00 
98800.00 
300.20 
0.01800000 
36   
           0.0           0.00           0.00           0.00        0.00000        0.00000  -0.0000700000   0.0000000600  0.0  0.0
         200.0           0.00           0.00           0.00        0.00000        0.00000  -0.0000700000   0.0000000600  0.0  0.0
         300.0           0.00           0.00           0.00        0.00000        0.00000  -0.0000650000   0.0000000550  0.0  0.0
         500.0           0.00           0.00           0.00        0.00000        0.00000  -0.0000650000   0.0000000500  0.0  0.0
        1000.0           0.00           0.00           0.00        0.00000        0.00000  -0.0000600000   0.0000000450  0.0  0.0
        1300.0           0.00           0.00           0.00        0.00000        0.00000  -0.0000450000   0.0000000300  0.0  0.0
        1800.0           0.00           0.00           0.00        0.00000        0.00000  -0.0000300000   0.0000000200  0.0  0.0
        2500.0           0.00           0.00           0.00        0.00000        0.00000  -0.0000200000   0.0000000050  0.0  0.0
        3000.0           0.00           0.00           0.00        0.00000        0.00000  -0.0000050000   0.0000000000  0.0  0.0
        3700.0           0.00           0.00           0.00        0.00000        0.00000  -0.0000050000   0.0000000000  0.0  0.0
        4200.0           0.00           0.00           0.00        0.00000        0.00000  -0.0000050000   0.0000000000  0.0  0.0
        5000.0           0.00           0.00           0.00        0.00000        0.00000  -0.0000050000   0.0000000000  0.0  0.0
        6000.0           0.00           0.00           0.00        0.00000        0.00000  -0.0000050000   0.0000000000  0.0  0.0
        7500.0           0.00           0.00           0.00        0.00000        0.00000   0.0000000000   0.0000000000  0.0  0.0
        8000.0           0.00           0.00           0.00        0.00000        0.00000   0.0000000000   0.0000000000  0.0  0.0
        9000.0           0.00           0.00           0.00        0.00000        0.00000   0.0000000000   0.0000000000  0.0  0.0
        9500.0           0.00           0.00           0.00        0.00000        0.00000   0.0000000000   0.0000000000  0.0  0.0
       10000.0           0.00           0.00           0.00        0.00000        0.00000   0.0000000000   0.0000000000  0.0  0.0
       11000.0           0.00           0.00           0.00        0.00000        0.00000   0.0000000000   0.0000000000  0.0  0.0
       12000.0           0.00           0.00           0.00        0.00000        0.00000   0.0000000000   0.0000000000  0.0  0.0
       15000.0           0.00           0.00           0.00        0.00000        0.00000   0.0000000000   0.0000000000  0.0  0.0
       15500.0           0.00           0.00           0.00        0.00000        0.00000   0.0000000000   0.0000000000  0.0  0.0
       16000.0           0.00           0.00           0.00        0.00000        0.00000   0.0000000000   0.0000000000  0.0  0.0
       17000.0           0.00           0.00           0.00        0.00000        0.00000   0.0000000000   0.0000000000  0.0  0.0
       18000.0           0.00           0.00           0.00        0.00000        0.00000   0.0000000000   0.0000000000  0.0  0.0
       20000.0           0.00           0.00           0.00        0.00000        0.00000   0.0000000000   0.0000000000  0.0  0.0
       21000.0           0.00           0.00           0.00        0.00000        0.00000   0.0000000000   0.0000000000  0.0  0.0
       22000.0           0.00           0.00           0.00        0.00000        0.00000   0.0000000000   0.0000000000  0.0  0.0
       23000.0           0.00           0.00           0.00        0.00000        0.00000   0.0000000000   0.0000000000  0.0  0.0
       24000.0           0.00           0.00           0.00        0.00000        0.00000   0.0000000000   0.0000000000  0.0  0.0
       25000.0           0.00           0.00           0.00        0.00000        0.00000   0.0000000000   0.0000000000  0.0  0.0
       30000.0           0.00           0.00           0.00        0.00000        0.00000   0.0000000000   0.0000000000  0.0  0.0
       35000.0           0.00           0.00           0.00        0.00000        0.00000   0.0000000000   0.0000000000  0.0  0.0
       40000.0           0.00           0.00           0.00        0.00000        0.00000   0.0000000000   0.0000000000  0.0  0.0
       45000.0           0.00           0.00           0.00        0.00000        0.00000   0.0000000000   0.0000000000  0.0  0.0
       50000.0           0.00           0.00           0.00        0.00000        0.00000   0.0000000000   0.0000000000  0.0  0.0
2006 07 10 28800
0.00 
98800.00 
300.20 
0.01800000 
36   
           0.0           0.00           0.00           0.00        0.00000        0.00000  -0.0000566667   0.0000000533  0.0  0.0
         200.0           0.00           0.00           0.00        0.00000        0.00000  -0.0000566667   0.0000000533  0.0  0.0
         300.0           0.00           0.00           0.00        0.00000        0.00000  -0.0000533333   0.0000000500  0.0  0.0
         500.0           0.00           0.00           0.00        0.00000        0.00000  -0.0000533333   0.0000000433  0.0  0.0
        1000.0           0.00           0.00           0.00        0.00000        0.00000  -0.0000500000   0.0000000400  0.0  0.0
        1300.0           0.00           0.00           0.00        0.00000        0.00000  -0.0000366667   0.0000000267  0.0  0.0
        1800.0           0.00           0.00           0.00        0.00000        0.00000  -0.0000233333   0.0000000167  0.0  0.0
        2500.0           0.00           0.00           0.00        0.00000        0.00000  -0.0000166667   0.0000000033  0.0  0.0
        3000.0           0.00           0.00           0.00        0.00000        0.00000  -0.0000033333   0.0000000000  0.0  0.0
        3700.0           0.00           0.00           0.00        0.00000        0.00000  -0.0000033333   0.0000000000  0.0  0.0
        4200.0           0.00           0.00           0.00        0.00000        0.00000  -0.0000033333   0.0000000000  0.0  0.0
        5000.0           0.00           0.00           0.00        0.00000        0.00000  -0.0000033333   0.0000000000  0.0  0.0
        6000.0           0.00           0.00           0.00        0.00000        0.00000  -0.0000033333   0.0000000000  0.0  0.0
        7500.0           0.00           0.00           0.00        0.00000        0.00000   0.0000000000   0.0000000000  0.0  0.0
        8000.0           0.00           0.00           0.00        0.00000        0.00000   0.0000000000   0.0000000000  0.0  0.0
        9000.0           0.00           0.00           0.00        0.00000        0.00000   0.0000000000   0.0000000000  0.0  0.0
        9500.0           0.00           0.00           0.00        0.00000        0.00000   0.0000000000   0.0000000000  0.0  0.0
       10000.0           0.00           0.00           0.00        0.00000        0.00000   0.0000000000   0.0000000000  0.0  0.0
       11000.0           0.00           0.00           0.00        0.00000        0.00000   0.0000000000   0.0000000000  0.0  0.0
       12000.0           0.00           0.00           0.00        0.00000        0.00000   0.0000000000   0.0000000000  0.0  0.0
       15000.0           0.00           0.00           0.00        0.00000        0.00000   0.0000000000   0.0000000000  0.0  0.0
       15500.0           0.00           0.00           0.00        0.00000        0.00000   0.0000000000   0.0000000000  0.0  0.0
       16000.0           0.00           0.00           0.00        0.00000        0.00000   0.0000000000   0.0000000000  0.0  0.0
       17000.0           0.00           0.00           0.00        0.00000        0.00000   0.0000000000   0.0000000000  0.0  0.0
       18000.0           0.00           0.00           0.00        0.00000        0.00000   0.0000000000   0.0000000000  0.0  0.0
       20000.0           0.00           0.00           0.00        0.00000        0.00000   0.0000000000   0.0000000000  0.0  0.0
       21000.0           0.00           0.00           0.00        0.00000        0.00000   0.0000000000   0.0000000000  0.0  0.0
       22000.0           0.00           0.00           0.00        0.00000        0.00000   0.0000000000   0.0000000000  0.0  0.0
       23000.0           0.00           0.00           0.00        0.00000        0.00000   0.0000000000   0.0000000000  0.0  0.0
       24000.0           0.00           0.00           0.00        0.00000        0.00000   0.0000000000   0.0000000000  0.0  0.0