&NAM_CONFIO
  LCDF4 = .TRUE.,
  LLFIOUT = .FALSE.,
  LLFIREAD = .FALSE.,
/ 

&NAM_CONFZ
  NZ_VERB = 0,
  NZ_PROC = 0,
  NB_PROCIO_R = 1,
  NB_PROCIO_W = 1,
  MPI_BUFFER_SIZE = 40,
  LMNH_MPI_BSEND = .TRUE.,
  LMNH_MPI_ALLTOALLV_REMAP = .FALSE.,
  NZ_SPLITTING = 10,
/ 

&NAM_LUNITn
  CINIFILE = 'init_EUROC',
  CINIFILEPGD = 'init_EUROC_PGD',
/ 

&NAM_DIMn_PRE
  NIMAX = 1,
  NJMAX = 1,
/ 

&NAM_DYNn_PRE
  CPRESOPT = 'CRESI',
  XRELAX = 1.,
  LRES = .FALSE.,
  XRES = 1.E-07,
/ 

&NAM_GRID_PRE
  XLON0 = -97.48,
  XLAT0 = 36.61,
  XBETA = 0.,
  XRPK = 1.,
  XLONORI = 350.,
  XLATORI = 37.,
/ 

&NAM_VER_GRID
  LTHINSHELL = .TRUE.,
  NKMAX = 130,
  YZGRID_TYPE = 'MANUAL',
  ZDZGRD = 25,
  ZDZTOP = 25,
  ZZMAX_STRGRD = 0.,
  ZSTRGRD = 0.,
  ZSTRTOP = 0.,
  LSLEVE = .FALSE.,
  XLEN1 = 7500.,
  XLEN2 = 2500.,
/ 

&NAM_CONF_PRE
  LCARTESIAN = .TRUE.,
  LPACK = .TRUE.,
  CEQNSYS = 'DUR',
  NVERB = 10,
  CIDEAL = 'RSOU',
  CZS = 'FLAT',
  LBOUSS = .FALSE.,
  LPERTURB = .FALSE.,
  LFORCING = .TRUE.,
  LSHIFT = .FALSE.,
  L2D_ADV_FRC = .FALSE.,
  L2D_REL_FRC = .FALSE.,
  NHALO = 1,
  JPHEXT = 1,
/ 

&NAM_PERT_PRE
  CPERT_KIND = 'WH',
  XAMPLITH = 1.5,
  XAMPLIRV = 0.0,
  XAMPLIUV = 1.0834,
  XAMPLIWH = 0.1,
  NKWH = 2,
  LSET_RHU = .TRUE.,
  XCENTERZ = 2000.,
  XRADX = 10000.,
  XRADY = 10000.,
  XRADZ = 2000.,
  LWH_LBXU = .FALSE.,
  LWH_LBYV = .FALSE.,
/ 

&NAM_GRIDH_PRE
  XDELTAX = 50000,
  XDELTAY = 50000,
  XHMAX = 0.,
  NEXPX = 3,
  NEXPY = 1,
  XAX = 10000.,
  XAY = 10000.,
  NIZS = 5,
  NJZS = 5,
/ 

&NAM_GRn_PRE
  CSURF = 'EXTE',
/ 

&NAM_CONFn
  LUSERV = .TRUE.,
  LUSERC = .FALSE.,
  LUSERR = .FALSE.,
  LUSERI = .FALSE.,
  LUSERS = .FALSE.,
  LUSERG = .FALSE.,
  LUSERH = .FALSE.,
  LUSECI = .FALSE.,
/ 

&NAM_LBCn
  CLBCX(1) = 'CYCL',
  CLBCX(2) = 'CYCL',
  CLBCY(1) = 'CYCL',
  CLBCY(2) = 'CYCL',
  NLBLX(:) = 1,
  NLBLY(:) = 1,
  XCPHASE = 20.,
  XCPHASE_PBL = 0.,
  XPOND = 1.0,
/ 

&NAM_PGD_SCHEMES
  CSEA = 'FLUX',
/ 

&NAM_COVER
  XUNIF_COVER(1) = 1.,
  XUNIF_COVER(6) = 0.,
/ 

&NAM_SEABATHY
  XUNIF_SEABATHY = 5.,
/ 

&NAM_PREP_SEAFLUX
  XSST_UNIF = 280.,
/ 

&NAM_DATA_SEAFLUX
  LSST_DATA = .FALSE.,
  NTIME_SST = 0,
  NYEAR_SST(1) = 1980,
  NMONTH_SST(1) = 1,
  NDAY_SST(1) = 1,
  XTIME_SST(1) = 0.,
  XUNIF_SST(1) = 280.,
/ 

&NAM_FRAC
  LECOCLIMAP = .TRUE.,
  XUNIF_NATURE = 1.,
/ 

&NAM_DATA_TSZ0
  NTIME = 0,
  XUNIF_DTS(1) = -0.250,
/ 

&NAM_DATA_ISBA
  NTIME = 0,
  XUNIF_Z0(1,1) = 0,
/ 

&NAM_ISBA
  XUNIF_CLAY = 1.,
  XUNIF_SAND = 0.,
  XUNIF_RUNOFFB = 0.5,
  CISBA = '2-L',
  CPHOTO = 'NON',
  NPATCH = 1,
  NGROUND_LAYER = 2,
/ 

&NAM_MOSAIn
  NGROUND_LAYER = 11,
  CCDRAG = 'SURFEX',
/ 

&NAM_DATA_MOSAI
  XUNIF_Z0 = 0.035,
  XUNIF_ALB = 0.164,
  XUNIF_EMIS = 0.99 ,
  XUNIF_Z0_O_Z0H = 1.   ,
  XUNIF_BETA = 0.32 ,
  XUNIF_ITHGRD = 600. ,
/ 

&NAM_PREP_MOSAI
  XTG = 286.4,
  XTS = 286.4,
/ 

&NAM_PREP_SURF_ATM
  NYEAR = 1980,
  NMONTH = 1,
  NDAY = 1,
  XTIME = 0.,
/ 

&NAM_PREP_ISBA
  XHUG_SURF = 0.,
  XHUG_ROOT = 0.,
  XHUG_DEEP = 0.,
  XHUGI_SURF = 1.,
  XHUGI_ROOT = 1.,
  XHUGI_DEEP = 1.,
  XTG_SURF = 280,
  XTG_ROOT = 280,
  XTG_DEEP = 280,
  LISBA_CANOPY = .FALSE.,
  NYEAR = 1980,
  NMONTH = 1,
  NDAY = 1,
  XTIME = 0.,
/ 

&NAM_DEEPSOIL
  LPHYSDOMC = .FALSE.,
  LDEEPSOIL = .FALSE.,
/ 

ZHAT
360
380
402
426
452
480
510
542
577
616
658
702
750
800
850
900
950
1000
1050
1100
1150
1200
1250
1300
1350
1400
1450
1500
1550
1600
1650
1700
1750
1800
1850
1900
1950
2000
2050
2100
2150
2200
2250
2300
2350
2400
2450
2500
2550
2600
2650
2700
2750
2800
2850
2905
2965
3031
3103
3182
3270
3372
3494
3640
3815
4025
4260
4510
4760
5010
5260
5510
5760
6010
6260
6510
6760
7010
7260
7510
7760
8010
8260
8510
8760
9010
9260
9510
9760
10010
10260
10510
10760
11010
11260
11510
11760
12010
12260
12510
12760
13010
13260
13510
13760
14010
14260
14510
14760
15010
15260
15510
15760
16010
16260
16510
16760
17010
17260
17510
17760
18010
18260
18510
18760
19010
19260
19510
19760
20010
20260

RSOU
1997 06 27 41400
ZUVTHDMR   
360.00 
97285.89 
298.63 
0.01611070 
21   
         360.0           1.91           3.30
         431.0           1.91           3.30
         895.0           3.70           4.84
        1380.8           4.99           4.44
        1890.2           5.38           3.05
        2424.9           5.08           1.70
        2988.0           4.61           0.73
        3583.0           4.51           0.23
        4214.3           4.53          -0.11
        4888.3           4.39          -0.19
        5613.6           4.09          -0.33
        6399.4           4.01          -0.46
        7256.6           4.69          -0.68
        8200.3           6.61          -0.85
        9251.3          10.22          -1.45
       10442.2          14.31          -2.32
       11830.7          16.62          -2.09
       13522.3          14.03          -1.26
       15762.2           6.59          -0.04
       16620.9           6.59          -0.04
       30765.4           6.59          -0.04
21   
         431.0         299.50     0.01445000
         895.0         302.00     0.01322000
        1380.8         304.30     0.01175000
        1890.2         306.10     0.00981500
        2424.9         308.10     0.00736800
        2988.0         310.00     0.00519500
        3583.0         311.90     0.00347800
        4214.3         314.00     0.00218700
        4888.3         317.00     0.00129700
        5613.6         320.50     0.00091920
        6399.4         323.90     0.00080770
        7256.6         327.10     0.00055920
        8200.3         330.30     0.00033270
        9251.3         333.40     0.00017710
       10442.2         337.70     0.00009020
       11830.7         345.40     0.00003251
       13522.3         358.10     0.00000918
       15762.2         389.40     0.00000435
       16620.9         405.20     0.00000000
       30765.4         782.20     0.00000000

ZFRC
193
1997 06 27 41400
360.00 
97285.89 
298.63 
0.01611070 
21   
     360.00000        1.90600        3.30300        0.00000    0.00000e+00 0.0000000000e+00 3.1629999739e-06 -1.3480000449e-09 0.0000000000e+00 0.0000000000e+00
     431.01042        1.90600        3.30300        0.00000    0.00000e+00 0.0000000000e+00 3.1629999739e-06 -1.3480000449e-09 0.0000000000e+00 0.0000000000e+00
     894.95528        3.69900        4.83700        0.00000    0.00000e+00 0.0000000000e+00 3.0189999052e-06 -1.9240000704e-09 0.0000000000e+00 0.0000000000e+00
    1380.84578        4.99300        4.43700        0.00000    0.00000e+00 0.0000000000e+00 -1.0390000398e-06 1.1209999595e-09 0.0000000000e+00 0.0000000000e+00
    1890.15097        5.38300        3.05200        0.00000    0.00000e+00 0.0000000000e+00 -7.8379998740e-06 9.0740002179e-09 0.0000000000e+00 0.0000000000e+00
    2424.90828        5.07600        1.70300        0.00000    0.00000e+00 0.0000000000e+00 -1.2479999896e-05 1.4010000271e-08 0.0000000000e+00 0.0000000000e+00
    2988.03233        4.61500        0.73250        0.00000    0.00000e+00 0.0000000000e+00 -1.3310000213e-05 1.2540000149e-08 0.0000000000e+00 0.0000000000e+00
    3582.97849        4.51400        0.22930        0.00000    0.00000e+00 0.0000000000e+00 -1.2659999811e-05 8.7150002770e-09 0.0000000000e+00 0.0000000000e+00
    4214.25922        4.52900       -0.11180        0.00000    0.00000e+00 0.0000000000e+00 -1.1690000065e-05 5.4529998295e-09 0.0000000000e+00 0.0000000000e+00
    4888.34171        4.38500       -0.19490        0.00000    0.00000e+00 0.0000000000e+00 -4.9979998948e-06 2.9630000675e-09 0.0000000000e+00 0.0000000000e+00
    5613.60446        4.09300       -0.32810        0.00000    0.00000e+00 0.0000000000e+00 1.0759999896e-05 1.1420000501e-09 0.0000000000e+00 0.0000000000e+00
    6399.36764        4.00600       -0.46240        0.00000    0.00000e+00 0.0000000000e+00 2.9139999242e-05 -9.9380004226e-10 0.0000000000e+00 0.0000000000e+00
    7256.64192        4.68800       -0.67730        0.00000    0.00000e+00 0.0000000000e+00 4.2560001020e-05 -2.7600000063e-09 0.0000000000e+00 0.0000000000e+00
    8200.29130        6.60500       -0.84740        0.00000    0.00000e+00 0.0000000000e+00 4.6900000598e-05 -2.4010000654e-09 0.0000000000e+00 0.0000000000e+00
    9251.26166       10.22000       -1.45300        0.00000    0.00000e+00 0.0000000000e+00 4.7339999583e-05 -1.3500000007e-09 0.0000000000e+00 0.0000000000e+00
   10442.21805       14.31000       -2.32200        0.00000    0.00000e+00 0.0000000000e+00 4.5659999159e-05 -5.5850002401e-10 0.0000000000e+00 0.0000000000e+00
   11830.72244       16.62000       -2.08600        0.00000    0.00000e+00 0.0000000000e+00 2.6370000342e-05 -1.5180000312e-10 0.0000000000e+00 0.0000000000e+00
   13522.30395       14.03000       -1.26000        0.00000    0.00000e+00 0.0000000000e+00 1.1790000087e-07 -5.2700001481e-12 0.0000000000e+00 0.0000000000e+00
   15762.17474        6.59000       -0.03798        0.00000    0.00000e+00 0.0000000000e+00 -9.7749998531e-06 1.4819999611e-12 0.0000000000e+00 0.0000000000e+00
   16620.85312        6.59000       -0.03798        0.00000    0.00000e+00 0.0000000000e+00 0.0000000000e+00 0.0000000000e+00 0.0000000000e+00 0.0000000000e+00
   30765.41138        6.59000       -0.03798        0.00000    0.00000e+00 0.0000000000e+00 0.0000000000e+00 0.0000000000e+00 0.0000000000e+00 0.0000000000e+00
1997 06 27 43200
360.00 
97285.89 
298.63 
0.01611070 
21   
     360.00000        2.01500        3.30750        0.00000    0.00000e+00 0.0000000000e+00 2.9878333407e-06 -1.4278334071e-09 0.0000000000e+00 0.0000000000e+00
     431.01042        2.01500        3.30750        0.00000    0.00000e+00 0.0000000000e+00 2.9878333407e-06 -1.4278334071e-09 0.0000000000e+00 0.0000000000e+00
     894.95528        3.76083        4.77383        0.00000    0.00000e+00 0.0000000000e+00 3.1034999211e-06 -2.1783335136e-09 0.0000000000e+00 0.0000000000e+00
    1380.84578        4.96400        4.38033        0.00000    0.00000e+00 0.0000000000e+00 -1.5916667451e-07 1.3716661140e-10 0.0000000000e+00 0.0000000000e+00
    1890.15097        5.34333        3.05567        0.00000    0.00000e+00 0.0000000000e+00 -6.0110000959e-06 6.9250001289e-09 0.0000000000e+00 0.0000000000e+00
    2424.90828        5.06983        1.76233        0.00000    0.00000e+00 0.0000000000e+00 -1.0214333088e-05 1.1446333659e-08 0.0000000000e+00 0.0000000000e+00
    2988.03233        4.67650        0.82375        0.00000    0.00000e+00 0.0000000000e+00 -1.1244216694e-05 1.0591766575e-08 0.0000000000e+00 0.0000000000e+00
    3582.97849        4.64983        0.34463        0.00000    0.00000e+00 0.0000000000e+00 -1.1037666809e-05 7.6223338752e-09 0.0000000000e+00 0.0000000000e+00
    4214.25922        4.70933        0.01275        0.00000    0.00000e+00 0.0000000000e+00 -1.0671999917e-05 4.9771666788e-09 0.0000000000e+00 0.0000000000e+00
    4888.34171        4.57533       -0.06337        0.00000    0.00000e+00 0.0000000000e+00 -5.1053330026e-06 2.7396667157e-09 0.0000000000e+00 0.0000000000e+00
    5613.60446        4.24283       -0.19468        0.00000    0.00000e+00 0.0000000000e+00 9.7271667983e-06 9.1993335172e-10 0.0000000000e+00 0.0000000000e+00
    6399.36764        4.06400       -0.35297        0.00000    0.00000e+00 0.0000000000e+00 2.8114998713e-05 -1.1083334250e-09 0.0000000000e+00 0.0000000000e+00
    7256.64192        4.67567       -0.62965        0.00000    0.00000e+00 0.0000000000e+00 4.2043335270e-05 -2.7314999151e-09 0.0000000000e+00 0.0000000000e+00
    8200.29130        6.57350       -0.91900        0.00000    0.00000e+00 0.0000000000e+00 4.6758334065e-05 -2.3608333066e-09 0.0000000000e+00 0.0000000000e+00
    9251.26166       10.26500       -1.60433        0.00000    0.00000e+00 0.0000000000e+00 4.7199999244e-05 -1.3256666875e-09 0.0000000000e+00 0.0000000000e+00
   10442.21805       14.39500       -2.49183        0.00000    0.00000e+00 0.0000000000e+00 4.6139997721e-05 -5.6903337597e-10 0.0000000000e+00 0.0000000000e+00
   11830.72244       16.68833       -2.22433        0.00000    0.00000e+00 0.0000000000e+00 2.7564999982e-05 -1.5749999915e-10 0.0000000000e+00 0.0000000000e+00
   13522.30395       14.00167       -1.32783        0.00000    0.00000e+00 0.0000000000e+00 1.1407499869e-06 -6.8316667427e-12 0.0000000000e+00 0.0000000000e+00
   15762.17474        6.53267       -0.03945        0.00000    0.00000e+00 0.0000000000e+00 -8.9146669779e-06 1.3384832522e-12 0.0000000000e+00 0.0000000000e+00
   16620.85312        6.53267       -0.03945        0.00000    0.00000e+00 0.0000000000e+00 0.0000000000e+00 0.0000000000e+00 0.0000000000e+00 0.0000000000e+00
   30765.41138        6.53267       -0.03945        0.00000    0.00000e+00 0.0000000000e+00 0.0000000000e+00 0.0000000000e+00 0.0000000000e+00 0.0000000000e+00
1997 06 27 45000
360.00 
97285.89 
298.63 
0.01611070 
21   
     360.00000        2.12400        3.31200        0.00000    0.00000e+00 0.0000000000e+00 2.8126667075e-06 -1.5076666582e-09 0.0000000000e+00 0.0000000000e+00
     431.01042        2.12400        3.31200        0.00000    0.00000e+00 0.0000000000e+00 2.8126667075e-06 -1.5076666582e-09 0.0000000000e+00 0.0000000000e+00
     894.95528        3.82267        4.71067        0.00000    0.00000e+00 0.0000000000e+00 3.1879999369e-06 -2.4326667347e-09 0.0000000000e+00 0.0000000000e+00
    1380.84578        4.93500        4.32367        0.00000    0.00000e+00 0.0000000000e+00 7.2066671919e-07 -8.4666673672e-10 0.0000000000e+00 0.0000000000e+00
    1890.15097        5.30367        3.05933        0.00000    0.00000e+00 0.0000000000e+00 -4.1839998630e-06 4.7760000399e-09 0.0000000000e+00 0.0000000000e+00
    2424.90828        5.06367        1.82167        0.00000    0.00000e+00 0.0000000000e+00 -7.9486662798e-06 8.8826670464e-09 0.0000000000e+00 0.0000000000e+00
    2988.03233        4.73800        0.91500        0.00000    0.00000e+00 0.0000000000e+00 -9.1784331744e-06 8.6435330005e-09 0.0000000000e+00 0.0000000000e+00
    3582.97849        4.78567        0.45997        0.00000    0.00000e+00 0.0000000000e+00 -9.4153328973e-06 6.5296670293e-09 0.0000000000e+00 0.0000000000e+00
    4214.25922        4.88967        0.13730        0.00000    0.00000e+00 0.0000000000e+00 -9.6539997685e-06 4.5013330841e-09 0.0000000000e+00 0.0000000000e+00
    4888.34171        4.76567        0.06817        0.00000    0.00000e+00 0.0000000000e+00 -5.2126665651e-06 2.5163333639e-09 0.0000000000e+00 0.0000000000e+00
    5613.60446        4.39267       -0.06127        0.00000    0.00000e+00 0.0000000000e+00 8.6943327915e-06 6.9786670887e-10 0.0000000000e+00 0.0000000000e+00
    6399.36764        4.12200       -0.24353        0.00000    0.00000e+00 0.0000000000e+00 2.7090000003e-05 -1.2228666968e-09 0.0000000000e+00 0.0000000000e+00
    7256.64192        4.66333       -0.58200        0.00000    0.00000e+00 0.0000000000e+00 4.1526665882e-05 -2.7030000460e-09 0.0000000000e+00 0.0000000000e+00
    8200.29130        6.54200       -0.99060        0.00000    0.00000e+00 0.0000000000e+00 4.6616667532e-05 -2.3206667699e-09 0.0000000000e+00 0.0000000000e+00
    9251.26166       10.31000       -1.75567        0.00000    0.00000e+00 0.0000000000e+00 4.7059998906e-05 -1.3013333744e-09 0.0000000000e+00 0.0000000000e+00
   10442.21805       14.48000       -2.66167        0.00000    0.00000e+00 0.0000000000e+00 4.6619999921e-05 -5.7956667243e-10 0.0000000000e+00 0.0000000000e+00
   11830.72244       16.75667       -2.36267        0.00000    0.00000e+00 0.0000000000e+00 2.8759999623e-05 -1.6319999518e-10 0.0000000000e+00 0.0000000000e+00
   13522.30395       13.97333       -1.39567        0.00000    0.00000e+00 0.0000000000e+00 2.1635999019e-06 -8.3933329037e-12 0.0000000000e+00 0.0000000000e+00
   15762.17474        6.47533       -0.04093        0.00000    0.00000e+00 0.0000000000e+00 -8.0543331933e-06 1.1949666517e-12 0.0000000000e+00 0.0000000000e+00
   16620.85312        6.47533       -0.04093        0.00000    0.00000e+00 0.0000000000e+00 0.0000000000e+00 0.0000000000e+00 0.0000000000e+00 0.0000000000e+00
   30765.41138        6.47533       -0.04093        0.00000    0.00000e+00 0.0000000000e+00 0.0000000000e+00 0.0000000000e+00 0.0000000000e+00 0.0000000000e+00
1997 06 27 46800
360.00 
97285.89 
298.63 
0.01611070 
21   
     360.00000        2.23300        3.31650        0.00000    0.00000e+00 0.0000000000e+00 2.6375000743e-06 -1.5875000203e-09 0.0000000000e+00 0.0000000000e+00
     431.01042        2.23300        3.31650        0.00000    0.00000e+00 0.0000000000e+00 2.6375000743e-06 -1.5875000203e-09 0.0000000000e+00 0.0000000000e+00
     894.95528        3.88450        4.64750        0.00000    0.00000e+00 0.0000000000e+00 3.2724999528e-06 -2.6869999559e-09 0.0000000000e+00 0.0000000000e+00
    1380.84578        4.90600        4.26700        0.00000    0.00000e+00 0.0000000000e+00 1.6005001271e-06 -1.8305000848e-09 0.0000000000e+00 0.0000000000e+00
    1890.15097        5.26400        3.06300        0.00000    0.00000e+00 0.0000000000e+00 -2.3570000849e-06 2.6270001730e-09 0.0000000000e+00 0.0000000000e+00
    2424.90828        5.05750        1.88100        0.00000    0.00000e+00 0.0000000000e+00 -5.6829999266e-06 6.3189999899e-09 0.0000000000e+00 0.0000000000e+00
    2988.03233        4.79950        1.00625        0.00000    0.00000e+00 0.0000000000e+00 -7.1126501098e-06 6.6952998701e-09 0.0000000000e+00 0.0000000000e+00
    3582.97849        4.92150        0.57530        0.00000    0.00000e+00 0.0000000000e+00 -7.7929998952e-06 5.4370001834e-09 0.0000000000e+00 0.0000000000e+00
    4214.25922        5.07000        0.26185        0.00000    0.00000e+00 0.0000000000e+00 -8.6359996203e-06 4.0254999334e-09 0.0000000000e+00 0.0000000000e+00
    4888.34171        4.95600        0.19970        0.00000    0.00000e+00 0.0000000000e+00 -5.3200001275e-06 2.2930000121e-09 0.0000000000e+00 0.0000000000e+00
    5613.60446        4.54250        0.07215        0.00000    0.00000e+00 0.0000000000e+00 7.6614996942e-06 4.7580001050e-10 0.0000000000e+00 0.0000000000e+00
    6399.36764        4.18000       -0.13410        0.00000    0.00000e+00 0.0000000000e+00 2.6064999474e-05 -1.3373999685e-09 0.0000000000e+00 0.0000000000e+00
    7256.64192        4.65100       -0.53435        0.00000    0.00000e+00 0.0000000000e+00 4.1010000132e-05 -2.6744999548e-09 0.0000000000e+00 0.0000000000e+00
    8200.29130        6.51050       -1.06220        0.00000    0.00000e+00 0.0000000000e+00 4.6475001000e-05 -2.2805000111e-09 0.0000000000e+00 0.0000000000e+00
    9251.26166       10.35500       -1.90700        0.00000    0.00000e+00 0.0000000000e+00 4.6920002205e-05 -1.2770000613e-09 0.0000000000e+00 0.0000000000e+00
   10442.21805       14.56500       -2.83150        0.00000    0.00000e+00 0.0000000000e+00 4.7100002121e-05 -5.9010002440e-10 0.0000000000e+00 0.0000000000e+00
   11830.72244       16.82500       -2.50100        0.00000    0.00000e+00 0.0000000000e+00 2.9955001082e-05 -1.6890000509e-10 0.0000000000e+00 0.0000000000e+00
   13522.30395       13.94500       -1.46350        0.00000    0.00000e+00 0.0000000000e+00 3.1864499306e-06 -9.9549994984e-12 0.0000000000e+00 0.0000000000e+00
   15762.17474        6.41800       -0.04240        0.00000    0.00000e+00 0.0000000000e+00 -7.1939998634e-06 1.0514499427e-12 0.0000000000e+00 0.0000000000e+00
   16620.85312        6.41800       -0.04240        0.00000    0.00000e+00 0.0000000000e+00 0.0000000000e+00 0.0000000000e+00 0.0000000000e+00 0.0000000000e+00
   30765.41138        6.41800       -0.04240        0.00000    0.00000e+00 0.0000000000e+00 0.0000000000e+00 0.0000000000e+00 0.0000000000e+00 0.0000000000e+00
1997 06 27 48600
360.00 
97285.89 
298.63 
0.01611070 
21   
     360.00000        2.34200        3.32100        0.00000    0.00000e+00 0.0000000000e+00 2.4623332138e-06 -1.6673333825e-09 0.0000000000e+00 0.0000000000e+00
     431.01042        2.34200        3.32100        0.00000    0.00000e+00 0.0000000000e+00 2.4623332138e-06 -1.6673333825e-09 0.0000000000e+00 0.0000000000e+00
     894.95528        3.94633        4.58433        0.00000    0.00000e+00 0.0000000000e+00 3.3569999687e-06 -2.9413333991e-09 0.0000000000e+00 0.0000000000e+00
    1380.84578        4.87700        4.21033        0.00000    0.00000e+00 0.0000000000e+00 2.4803334782e-06 -2.8143334330e-09 0.0000000000e+00 0.0000000000e+00
    1890.15097        5.22433        3.06667        0.00000    0.00000e+00 0.0000000000e+00 -5.3000002254e-07 4.7800013947e-10 0.0000000000e+00 0.0000000000e+00
    2424.90828        5.05133        1.94033        0.00000    0.00000e+00 0.0000000000e+00 -3.4173333461e-06 3.7553333776e-09 0.0000000000e+00 0.0000000000e+00
    2988.03233        4.86100        1.09750        0.00000    0.00000e+00 0.0000000000e+00 -5.0468665904e-06 4.7470667397e-09 0.0000000000e+00 0.0000000000e+00
    3582.97849        5.05733        0.69063        0.00000    0.00000e+00 0.0000000000e+00 -6.1706664383e-06 4.3443333375e-09 0.0000000000e+00 0.0000000000e+00
    4214.25922        5.25033        0.38640        0.00000    0.00000e+00 0.0000000000e+00 -7.6179999269e-06 3.5496665607e-09 0.0000000000e+00 0.0000000000e+00
    4888.34171        5.14633        0.33123        0.00000    0.00000e+00 0.0000000000e+00 -5.4273332353e-06 2.0696666603e-09 0.0000000000e+00 0.0000000000e+00
    5613.60446        4.69233        0.20557        0.00000    0.00000e+00 0.0000000000e+00 6.6286665970e-06 2.5373333989e-10 0.0000000000e+00 0.0000000000e+00
    6399.36764        4.23800       -0.02467        0.00000    0.00000e+00 0.0000000000e+00 2.5039998945e-05 -1.4519333513e-09 0.0000000000e+00 0.0000000000e+00
    7256.64192        4.63867       -0.48670        0.00000    0.00000e+00 0.0000000000e+00 4.0493334382e-05 -2.6459998637e-09 0.0000000000e+00 0.0000000000e+00
    8200.29130        6.47900       -1.13380        0.00000    0.00000e+00 0.0000000000e+00 4.6333334467e-05 -2.2403332522e-09 0.0000000000e+00 0.0000000000e+00
    9251.26166       10.40000       -2.05833        0.00000    0.00000e+00 0.0000000000e+00 4.6780001867e-05 -1.2526666371e-09 0.0000000000e+00 0.0000000000e+00
   10442.21805       14.65000       -3.00133        0.00000    0.00000e+00 0.0000000000e+00 4.7580000683e-05 -6.0063337637e-10 0.0000000000e+00 0.0000000000e+00
   11830.72244       16.89333       -2.63933        0.00000    0.00000e+00 0.0000000000e+00 3.1150000723e-05 -1.7460000112e-10 0.0000000000e+00 0.0000000000e+00
   13522.30395       13.91667       -1.53133        0.00000    0.00000e+00 0.0000000000e+00 4.2092997319e-06 -1.1516666093e-11 0.0000000000e+00 0.0000000000e+00
   15762.17474        6.36067       -0.04387        0.00000    0.00000e+00 0.0000000000e+00 -6.3336665335e-06 9.0793328801e-13 0.0000000000e+00 0.0000000000e+00
   16620.85312        6.36067       -0.04387        0.00000    0.00000e+00 0.0000000000e+00 0.0000000000e+00 0.0000000000e+00 0.0000000000e+00 0.0000000000e+00
   30765.41138        6.36067       -0.04387        0.00000    0.00000e+00 0.0000000000e+00 0.0000000000e+00 0.0000000000e+00 0.0000000000e+00 0.0000000000e+00
1997 06 27 50400
360.00 
97285.89 
298.63 
0.01611070 
21   
     360.00000        2.45100        3.32550        0.00000    0.00000e+00 0.0000000000e+00 2.2871665806e-06 -1.7471666336e-09 0.0000000000e+00 0.0000000000e+00
     431.01042        2.45100        3.32550        0.00000    0.00000e+00 0.0000000000e+00 2.2871665806e-06 -1.7471666336e-09 0.0000000000e+00 0.0000000000e+00
     894.95528        4.00817        4.52117        0.00000    0.00000e+00 0.0000000000e+00 3.4414999845e-06 -3.1956668423e-09 0.0000000000e+00 0.0000000000e+00
    1380.84578        4.84800        4.15367        0.00000    0.00000e+00 0.0000000000e+00 3.3601668292e-06 -3.7981666701e-09 0.0000000000e+00 0.0000000000e+00
    1890.15097        5.18467        3.07033        0.00000    0.00000e+00 0.0000000000e+00 1.2969999261e-06 -1.6709998940e-09 0.0000000000e+00 0.0000000000e+00
    2424.90828        5.04517        1.99967        0.00000    0.00000e+00 0.0000000000e+00 -1.1516666518e-06 1.1916667653e-09 0.0000000000e+00 0.0000000000e+00
    2988.03233        4.92250        1.18875        0.00000    0.00000e+00 0.0000000000e+00 -2.9810832984e-06 2.7988333873e-09 0.0000000000e+00 0.0000000000e+00
    3582.97849        5.19317        0.80597        0.00000    0.00000e+00 0.0000000000e+00 -4.5483334361e-06 3.2516667137e-09 0.0000000000e+00 0.0000000000e+00
    4214.25922        5.43067        0.51095        0.00000    0.00000e+00 0.0000000000e+00 -6.6000002334e-06 3.0738334100e-09 0.0000000000e+00 0.0000000000e+00
    4888.34171        5.33667        0.46277        0.00000    0.00000e+00 0.0000000000e+00 -5.5346663430e-06 1.8463333085e-09 0.0000000000e+00 0.0000000000e+00
    5613.60446        4.84217        0.33898        0.00000    0.00000e+00 0.0000000000e+00 5.5958334997e-06 3.1666672756e-11 0.0000000000e+00 0.0000000000e+00
    6399.36764        4.29600        0.08477        0.00000    0.00000e+00 0.0000000000e+00 2.4015000236e-05 -1.5664667341e-09 0.0000000000e+00 0.0000000000e+00
    7256.64192        4.62633       -0.43905        0.00000    0.00000e+00 0.0000000000e+00 3.9976664993e-05 -2.6174999945e-09 0.0000000000e+00 0.0000000000e+00
    8200.29130        6.44750       -1.20540        0.00000    0.00000e+00 0.0000000000e+00 4.6191667934e-05 -2.2001667155e-09 0.0000000000e+00 0.0000000000e+00
    9251.26166       10.44500       -2.20967        0.00000    0.00000e+00 0.0000000000e+00 4.6640001528e-05 -1.2283333239e-09 0.0000000000e+00 0.0000000000e+00
   10442.21805       14.73500       -3.17117        0.00000    0.00000e+00 0.0000000000e+00 4.8059999244e-05 -6.1116667283e-10 0.0000000000e+00 0.0000000000e+00
   11830.72244       16.96167       -2.77767        0.00000    0.00000e+00 0.0000000000e+00 3.2345000363e-05 -1.8029999715e-10 0.0000000000e+00 0.0000000000e+00
   13522.30395       13.88833       -1.59917        0.00000    0.00000e+00 0.0000000000e+00 5.2321497606e-06 -1.3078332688e-11 0.0000000000e+00 0.0000000000e+00
   15762.17474        6.30333       -0.04535        0.00000    0.00000e+00 0.0000000000e+00 -5.4733332036e-06 7.6441663329e-13 0.0000000000e+00 0.0000000000e+00
   16620.85312        6.30333       -0.04535        0.00000    0.00000e+00 0.0000000000e+00 0.0000000000e+00 0.0000000000e+00 0.0000000000e+00 0.0000000000e+00
   30765.41138        6.30333       -0.04535        0.00000    0.00000e+00 0.0000000000e+00 0.0000000000e+00 0.0000000000e+00 0.0000000000e+00 0.0000000000e+00
1997 06 27 52200
360.00 
97285.89 
298.63 
0.01611070 
21   
     360.00000        2.56000        3.33000        0.00000    0.00000e+00 0.0000000000e+00 2.1119999474e-06 -1.8269999957e-09 0.0000000000e+00 0.0000000000e+00
     431.01042        2.56000        3.33000        0.00000    0.00000e+00 0.0000000000e+00 2.1119999474e-06 -1.8269999957e-09 0.0000000000e+00 0.0000000000e+00
     894.95528        4.07000        4.45800        0.00000    0.00000e+00 0.0000000000e+00 3.5260000004e-06 -3.4500000634e-09 0.0000000000e+00 0.0000000000e+00
    1380.84578        4.81900        4.09700        0.00000    0.00000e+00 0.0000000000e+00 4.2400001803e-06 -4.7820001292e-09 0.0000000000e+00 0.0000000000e+00
    1890.15097        5.14500        3.07400        0.00000    0.00000e+00 0.0000000000e+00 3.1239999316e-06 -3.8199998720e-09 0.0000000000e+00 0.0000000000e+00
    2424.90828        5.03900        2.05900        0.00000    0.00000e+00 0.0000000000e+00 1.1140000424e-06 -1.3719999581e-09 0.0000000000e+00 0.0000000000e+00
    2988.03233        4.98400        1.28000        0.00000    0.00000e+00 0.0000000000e+00 -9.1530000645e-07 8.5059997934e-10 0.0000000000e+00 0.0000000000e+00
    3582.97849        5.32900        0.92130        0.00000    0.00000e+00 0.0000000000e+00 -2.9259999792e-06 2.1590000898e-09 0.0000000000e+00 0.0000000000e+00
    4214.25922        5.61100        0.63550        0.00000    0.00000e+00 0.0000000000e+00 -5.5820000853e-06 2.5980000373e-09 0.0000000000e+00 0.0000000000e+00
    4888.34171        5.52700        0.59430        0.00000    0.00000e+00 0.0000000000e+00 -5.6419999055e-06 1.6229999567e-09 0.0000000000e+00 0.0000000000e+00
    5613.60446        4.99200        0.47240        0.00000    0.00000e+00 0.0000000000e+00 4.5629999477e-06 -1.9040000132e-10 0.0000000000e+00 0.0000000000e+00
    6399.36764        4.35400        0.19420        0.00000    0.00000e+00 0.0000000000e+00 2.2989999707e-05 -1.6810000059e-09 0.0000000000e+00 0.0000000000e+00
    7256.64192        4.61400       -0.39140        0.00000    0.00000e+00 0.0000000000e+00 3.9459999243e-05 -2.5889999034e-09 0.0000000000e+00 0.0000000000e+00
    8200.29130        6.41600       -1.27700        0.00000    0.00000e+00 0.0000000000e+00 4.6050001401e-05 -2.1599999567e-09 0.0000000000e+00 0.0000000000e+00
    9251.26166       10.49000       -2.36100        0.00000    0.00000e+00 0.0000000000e+00 4.6500001190e-05 -1.2040000108e-09 0.0000000000e+00 0.0000000000e+00
   10442.21805       14.82000       -3.34100        0.00000    0.00000e+00 0.0000000000e+00 4.8540001444e-05 -6.2170002479e-10 0.0000000000e+00 0.0000000000e+00
   11830.72244       17.03000       -2.91600        0.00000    0.00000e+00 0.0000000000e+00 3.3540000004e-05 -1.8599999319e-10 0.0000000000e+00 0.0000000000e+00
   13522.30395       13.86000       -1.66700        0.00000    0.00000e+00 0.0000000000e+00 6.2549997892e-06 -1.4639999282e-11 0.0000000000e+00 0.0000000000e+00
   15762.17474        6.24600       -0.04682        0.00000    0.00000e+00 0.0000000000e+00 -4.6129998736e-06 6.2089997857e-13 0.0000000000e+00 0.0000000000e+00
   16620.85312        6.24600       -0.04682        0.00000    0.00000e+00 0.0000000000e+00 0.0000000000e+00 0.0000000000e+00 0.0000000000e+00 0.0000000000e+00
   30765.41138        6.24600       -0.04682        0.00000    0.00000e+00 0.0000000000e+00 0.0000000000e+00 0.0000000000e+00 0.0000000000e+00 0.0000000000e+00
1997 06 27 54000
360.00 
97285.89 
298.63 