&NAM_CONFIO
  LCDF4 = .TRUE.,
  LLFIOUT = .FALSE.,
  LLFIREAD = .FALSE.,
/ 

&NAM_CONFZ
  NZ_VERB = 0,
  NZ_PROC = 0,
  NB_PROCIO_R = 1,
  NB_PROCIO_W = 1,
  MPI_BUFFER_SIZE = 40,
  LMNH_MPI_BSEND = .TRUE.,
  LMNH_MPI_ALLTOALLV_REMAP = .FALSE.,
  NZ_SPLITTING = 10,
/ 

&NAM_LUNITn
  CINIFILE = 'init_MAIZE',
  CINIFILEPGD = 'init_MAIZE_PGD',
/ 

&NAM_DIMn_PRE
  NIMAX = 1,
  NJMAX = 1,
/ 

&NAM_DYNn_PRE
  CPRESOPT = 'CRESI',
  NITR = 4,
  XRELAX = 1.,
  LRES = .FALSE.,
  XRES = 1.E-07,
/ 

&NAM_GRID_PRE
  XLON0 = 0.36,
  XLAT0 = 43.09,
  XBETA = 0.,
  XRPK = 1.,
  XLONORI = 350.,
  XLATORI = 37.,
/ 

&NAM_VER_GRID
  LTHINSHELL = .TRUE.,
  NKMAX = 160,
  YZGRID_TYPE = 'FUNCTN',
  ZDZGRD = 25.000000,
  ZDZTOP = 25.000000,
  ZZMAX_STRGRD = 1000.000000,
  ZSTRGRD = 0,
  ZSTRTOP = 0.000000,
  LSLEVE = .FALSE.,
  XLEN1 = 7500.,
  XLEN2 = 2500.,
/ 

&NAM_CONF_PRE
  LCARTESIAN = .TRUE.,
  LPACK = .TRUE.,
  CEQNSYS = 'DUR',
  NVERB = 10,
  CIDEAL = 'RSOU',
  CZS = 'FLAT',
  LBOUSS = .FALSE.,
  LPERTURB = .FALSE.,
  LFORCING = .TRUE.,
  LSHIFT = .FALSE.,
  L2D_ADV_FRC = .FALSE.,
  L2D_REL_FRC = .FALSE.,
  NHALO = 1,
  JPHEXT = 1,
/ 

&NAM_PERT_PRE
  CPERT_KIND = 'WH',
  XAMPLITH = 1.5,
  XAMPLIRV = 0.0,
  XAMPLIUV = 1.0834,
  XAMPLIWH = 0.1,
  NKWH = 2,
  LSET_RHU = .TRUE.,
  XCENTERZ = 2000.,
  XRADX = 10000.,
  XRADY = 10000.,
  XRADZ = 2000.,
  LWH_LBXU = .FALSE.,
  LWH_LBYV = .FALSE.,
/ 

&NAM_GRIDH_PRE
  XDELTAX = 50000,
  XDELTAY = 50000,
  XHMAX = 0.,
  NEXPX = 3,
  NEXPY = 1,
  XAX = 10000.,
  XAY = 10000.,
  NIZS = 5,
  NJZS = 5,
/ 

&NAM_GRn_PRE
  CSURF = 'EXTE',
/ 

&NAM_CONFn
  LUSERV = .TRUE.,
  LUSERC = .FALSE.,
  LUSERR = .FALSE.,
  LUSERI = .FALSE.,
  LUSERS = .FALSE.,
  LUSERG = .FALSE.,
  LUSERH = .FALSE.,
  LUSECI = .FALSE.,
/ 

&NAM_LBCn
  CLBCX(1) = 'CYCL',
  CLBCX(2) = 'CYCL',
  CLBCY(1) = 'CYCL',
  CLBCY(2) = 'CYCL',
  NLBLX(:) = 1,
  NLBLY(:) = 1,
  XCPHASE = 20.,
  XCPHASE_PBL = 0.,
  XPOND = 1.0,
/ 

&NAM_PGD_SCHEMES
  CSEA = 'FLUX',
  CNATURE = 'TSZ0',
/ 

&NAM_COVER
  XUNIF_COVER(1) = 1.,
  XUNIF_COVER(6) = 0.,
/ 

&NAM_SEABATHY
  XUNIF_SEABATHY = 5.,
/ 

&NAM_PREP_SEAFLUX
  XSST_UNIF = 280.,
/ 

&NAM_DATA_SEAFLUX
  LSST_DATA = .FALSE.,
  NTIME_SST = 0,
  NYEAR_SST(1) = 1980,
  NMONTH_SST(1) = 1,
  NDAY_SST(1) = 1,
  XTIME_SST(1) = 0.,
  XUNIF_SST(1) = 280.,
/ 

&NAM_FRAC
  LECOCLIMAP = .TRUE.,
  XUNIF_NATURE = 1.,
/ 

&NAM_DATA_TSZ0
  NTIME = 0,
  XUNIF_DTS(1) = -0.250,
/ 

&NAM_DATA_ISBA
  NTIME = 0,
  XUNIF_Z0(1,1) = 0,
/ 

&NAM_ISBA
  XUNIF_CLAY = 1.,
  XUNIF_SAND = 0.,
  XUNIF_RUNOFFB = 0.5,
  CISBA = '2-L',
  CPHOTO = 'NON',
  NPATCH = 1,
  NGROUND_LAYER = 2,
/ 

&NAM_PREP_SURF_ATM
  NYEAR = 1980,
  NMONTH = 1,
  NDAY = 1,
  XTIME = 0.,
/ 

&NAM_PREP_ISBA
  XHUG_SURF = 0.,
  XHUG_ROOT = 0.,
  XHUG_DEEP = 0.,
  XHUGI_SURF = 1.,
  XHUGI_ROOT = 1.,
  XHUGI_DEEP = 1.,
  XTG_SURF = 280,
  XTG_ROOT = 280,
  XTG_DEEP = 280,
  LISBA_CANOPY = .FALSE.,
  NYEAR = 1980,
  NMONTH = 1,
  NDAY = 1,
  XTIME = 0.,
/ 

&NAM_DEEPSOIL
  LPHYSDOMC = .FALSE.,
  LDEEPSOIL = .FALSE.,
/ 


RSOU
2023 08 19 18000
ZUVTHDMR   
0.00 
95000.00 
298.69 
0.01507196 
3472   
         635.3           4.74           0.93
         638.1           4.84           0.88
         641.4           4.97           0.82
         645.2           5.13           0.77
         647.8           5.23           0.74
         653.9           5.49           0.69
         656.1           5.58           0.67
         658.7           5.69           0.67
         664.6           5.96           0.67
         667.6           6.09           0.68
         671.3           6.26           0.69
         676.6           6.51           0.73
         681.3           6.74           0.77
         685.9           6.97           0.81
         690.0           7.18           0.85
         696.2           7.49           0.91
         702.2           7.81           0.96
         705.5           7.98           0.98
         710.0           8.22           1.00
         716.4           8.55           1.02
         719.4           8.70           1.02
         722.7           8.87           1.02
         728.9           9.19           0.99
         734.6           9.47           0.94
         742.4           9.84           0.85
         749.0          10.14           0.74
         753.1          10.32           0.66
         757.1          10.49           0.58
         763.4          10.75           0.43
         770.5          11.03           0.24
         774.3          11.18           0.13
         779.8          11.38          -0.03
         784.1          11.53          -0.16
         790.7          11.75          -0.37
         796.2          11.91          -0.55
         801.5          12.06          -0.72
         807.5          12.22          -0.91
         817.0          12.43          -1.18
         819.7          12.48          -1.25
         827.0          12.60          -1.42
         830.9          12.65          -1.50
         834.7          12.69          -1.56
         837.4          12.71          -1.61
         841.3          12.73          -1.66
         847.6          12.75          -1.72
         853.7          12.74          -1.76
         856.9          12.73          -1.77
         860.8          12.70          -1.78
         865.2          12.66          -1.78
         870.8          12.60          -1.78
         875.2          12.54          -1.78
         880.2          12.46          -1.77
         886.6          12.35          -1.76
         891.3          12.26          -1.76
         896.3          12.17          -1.76
         900.4          12.08          -1.77
         902.1          12.05          -1.77
         905.4          11.98          -1.78
         909.4          11.90          -1.79
         912.8          11.84          -1.81
         915.9          11.78          -1.83
         919.4          11.71          -1.85
         922.2          11.66          -1.87
         925.4          11.60          -1.89
         929.2          11.54          -1.92
         932.5          11.48          -1.95
         935.0          11.44          -1.97
         937.5          11.40          -1.99
         941.2          11.35          -2.02
         944.3          11.31          -2.05
         948.0          11.26          -2.08
         951.6          11.21          -2.11
         955.0          11.17          -2.14
         957.0          11.14          -2.16
         960.4          11.10          -2.19
         963.1          11.07          -2.21
         966.8          11.03          -2.23
         969.9          11.00          -2.26
         972.9          10.96          -2.28
         978.9          10.90          -2.31
         978.5          10.90          -2.31
         982.3          10.86          -2.34
         986.8          10.81          -2.36
         989.2          10.79          -2.37
         992.7          10.75          -2.39
         997.0          10.70          -2.42
        1002.6          10.64          -2.44
        1005.9          10.61          -2.46
        1007.1          10.59          -2.46
        1010.4          10.56          -2.48
        1012.8          10.53          -2.49
        1016.7          10.49          -2.50
        1019.1          10.47          -2.51
        1022.3          10.44          -2.53
        1026.0          10.40          -2.54
        1029.1          10.38          -2.55
        1032.1          10.35          -2.57
        1034.5          10.33          -2.58
        1037.7          10.31          -2.59
        1040.9          10.29          -2.60
        1045.0          10.26          -2.62
        1047.9          10.25          -2.64
        1050.3          10.23          -2.65
        1053.3          10.22          -2.66
        1056.1          10.21          -2.68
        1059.5          10.20          -2.70
        1062.1          10.19          -2.71
        1065.2          10.18          -2.73
        1068.5          10.17          -2.75
        1071.5          10.16          -2.77
        1074.2          10.16          -2.79
        1076.7          10.15          -2.81
        1080.4          10.15          -2.83
        1083.8          10.14          -2.86
        1087.3          10.14          -2.89
        1090.8          10.13          -2.92
        1094.2          10.12          -2.94
        1098.2          10.11          -2.98
        1101.4          10.11          -3.01
        1105.1          10.09          -3.04
        1109.4          10.08          -3.08
        1113.0          10.07          -3.11
        1116.4          10.06          -3.14
        1120.3          10.04          -3.17
        1123.8          10.03          -3.20
        1127.5          10.01          -3.23
        1131.2           9.99          -3.26
        1134.4           9.98          -3.28
        1138.9           9.96          -3.31
        1142.1           9.94          -3.34
        1146.1           9.93          -3.36
        1150.1           9.91          -3.39
        1153.5           9.89          -3.41
        1157.1           9.88          -3.43
        1160.3           9.87          -3.45
        1163.6           9.85          -3.47
        1167.0           9.84          -3.49
        1171.2           9.83          -3.51
        1177.5           9.81          -3.55
        1181.2           9.79          -3.57
        1182.8           9.79          -3.58
        1186.1           9.77          -3.60
        1188.5           9.76          -3.62
        1192.6           9.74          -3.64
        1195.5           9.73          -3.67
        1199.1           9.71          -3.69
        1202.8           9.69          -3.72
        1205.8           9.67          -3.74
        1209.1           9.64          -3.77
        1212.8           9.62          -3.80
        1216.1           9.59          -3.83
        1220.1           9.55          -3.86
        1222.8           9.53          -3.88
        1226.5           9.49          -3.91
        1230.2           9.45          -3.95
        1233.7           9.42          -3.97
        1237.5           9.38          -4.00
        1240.6           9.34          -4.03
        1244.0           9.31          -4.05
        1247.6           9.27          -4.08
        1249.6           9.24          -4.09
        1253.8           9.20          -4.12
        1256.1           9.17          -4.13
        1260.0           9.14          -4.15
        1263.3           9.10          -4.16
        1266.9           9.07          -4.18
        1269.6           9.05          -4.18
        1272.7           9.02          -4.19
        1276.1           8.99          -4.20
        1279.7           8.97          -4.20
        1282.9           8.94          -4.20
        1286.7           8.92          -4.20
        1289.3           8.91          -4.20
        1292.8           8.89          -4.19
        1296.7           8.87          -4.18
        1299.6           8.86          -4.17
        1303.2           8.84          -4.16
        1307.5           8.82          -4.15
        1310.0           8.81          -4.14
        1313.9           8.80          -4.12
        1317.1           8.79          -4.11
        1321.5           8.77          -4.08
        1325.2           8.76          -4.06
        1328.6           8.75          -4.05
        1333.0           8.73          -4.02
        1336.0           8.71          -4.00
        1339.0           8.70          -3.99
        1343.5           8.67          -3.96
        1346.6           8.66          -3.94
        1349.6           8.64          -3.92
        1353.4           8.61          -3.89
        1356.6           8.59          -3.87
        1360.2           8.56          -3.85
        1364.0           8.52          -3.82
        1366.9           8.49          -3.80
        1371.3           8.44          -3.77
        1375.2           8.40          -3.74
        1378.4           8.36          -3.71
        1382.2           8.31          -3.68
        1384.5           8.27          -3.66
        1388.5           8.21          -3.62
        1391.5           8.17          -3.60
        1395.6           8.10          -3.56
        1399.7           8.03          -3.52
        1403.2           7.96          -3.49
        1406.7           7.90          -3.46
        1409.6           7.84          -3.43
        1412.6           7.78          -3.40
        1416.5           7.70          -3.36
        1419.5           7.63          -3.33
        1423.4           7.55          -3.30
        1426.5           7.48          -3.27
        1430.7           7.39          -3.24
        1434.5           7.30          -3.20
        1437.5           7.23          -3.18
        1440.5           7.16          -3.16
        1444.7           7.06          -3.12
        1449.6           6.94          -3.09
        1453.3           6.85          -3.07
        1458.3           6.73          -3.03
        1463.2           6.60          -3.01
        1467.1           6.51          -2.99
        1471.5           6.40          -2.96
        1475.7           6.30          -2.94
        1479.9           6.19          -2.92
        1484.2           6.09          -2.90
        1487.4           6.01          -2.89
        1491.7           5.90          -2.87
        1495.1           5.82          -2.86
        1498.5           5.74          -2.84
        1502.4           5.65          -2.82
        1505.9           5.57          -2.81
        1508.7           5.51          -2.80
        1512.0           5.44          -2.78
        1515.3           5.37          -2.76
        1519.4           5.28          -2.75
        1522.6           5.22          -2.73
        1526.1           5.15          -2.71
        1528.3           5.11          -2.70
        1531.8           5.04          -2.69
        1535.2           4.98          -2.67
        1539.3           4.91          -2.65
        1542.6           4.85          -2.63
        1545.7           4.80          -2.62
        1549.7           4.74          -2.60
        1553.0           4.69          -2.59
        1556.7           4.63          -2.57
        1561.1           4.57          -2.56
        1564.1           4.53          -2.55
        1568.1           4.47          -2.54
        1573.0           4.41          -2.53
        1577.2           4.35          -2.53
        1581.0           4.30          -2.52
        1585.5           4.25          -2.52
        1588.6           4.21          -2.52
        1592.2           4.17          -2.53
        1595.4           4.13          -2.53
        1599.9           4.08          -2.54
        1604.0           4.03          -2.55
        1608.2           3.98          -2.57
        1612.1           3.94          -2.58
        1616.7           3.89          -2.60
        1619.9           3.85          -2.61
        1624.1           3.80          -2.63
        1628.6           3.76          -2.65
        1631.4           3.73          -2.66
        1635.0           3.69          -2.67
        1639.2           3.65          -2.69
        1642.3           3.62          -2.70
        1646.4           3.58          -2.72
        1649.3           3.55          -2.72
        1652.5           3.52          -2.73
        1657.2           3.48          -2.74
        1660.1           3.46          -2.75
        1664.0           3.42          -2.75
        1668.4           3.39          -2.76
        1672.1           3.36          -2.76
        1675.4           3.33          -2.76
        1679.7           3.29          -2.76
        1682.9           3.27          -2.75
        1686.4           3.24          -2.75
        1690.3           3.21          -2.75
        1692.3           3.19          -2.74
        1696.9           3.15          -2.73
        1700.0           3.13          -2.73
        1704.0           3.09          -2.72
        1707.6           3.06          -2.71
        1711.2           3.03          -2.70
        1715.5           2.99          -2.69
        1718.8           2.96          -2.68
        1722.4           2.92          -2.66
        1726.8           2.88          -2.65
        1730.3           2.85          -2.64
        1733.9           2.82          -2.63
        1738.2           2.77          -2.61
        1741.3           2.74          -2.60
        1745.3           2.71          -2.59
        1749.0           2.67          -2.58
        1752.3           2.64          -2.57
        1756.6           2.60          -2.55
        1760.0           2.56          -2.54
        1764.3           2.52          -2.53
        1768.0           2.49          -2.52
        1771.3           2.46          -2.51
        1775.7           2.42          -2.50
        1779.0           2.38          -2.49
        1783.5           2.34          -2.48
        1787.3           2.31          -2.47
        1790.1           2.28          -2.47
        1794.0           2.25          -2.46
        1797.3           2.22          -2.45
        1800.8           2.19          -2.44
        1804.9           2.16          -2.43
        1808.5           2.13          -2.42
        1811.6           2.11          -2.41
        1815.6           2.08          -2.40
        1818.3           2.06          -2.38
        1823.0           2.02          -2.36
        1826.6           2.00          -2.35
        1830.1           1.98          -2.33
        1834.4           1.95          -2.30
        1839.3           1.92          -2.27
        1843.2           1.89          -2.24
        1846.4           1.88          -2.22
        1849.9           1.85          -2.19
        1853.9           1.83          -2.16
        1857.3           1.81          -2.13
        1861.9           1.78          -2.09
        1866.2           1.76          -2.05
        1869.5           1.73          -2.02
        1873.4           1.71          -1.98
        1877.3           1.68          -1.94
        1881.6           1.65          -1.90
        1885.5           1.62          -1.87
        1889.6           1.59          -1.83
        1892.4           1.57          -1.80
        1896.2           1.54          -1.77
        1900.8           1.50          -1.73
        1903.9           1.47          -1.70
        1907.0           1.44          -1.68
        1910.9           1.40          -1.65
        1913.9           1.37          -1.62
        1918.0           1.33          -1.59
        1920.7           1.30          -1.56
        1924.8           1.25          -1.53
        1928.7           1.20          -1.50
        1932.5           1.15          -1.46
        1938.3           1.07          -1.41
        1943.2           1.01          -1.36
        1948.1           0.94          -1.32
        1950.6           0.90          -1.29
        1955.5           0.84          -1.24
        1960.8           0.77          -1.17
        1964.3           0.72          -1.13
        1969.6           0.66          -1.06
        1974.9           0.60          -0.99
        1980.4           0.54          -0.92
        1985.2           0.49          -0.85
        1988.6           0.47          -0.80
        1993.0           0.43          -0.74
        1997.9           0.40          -0.67
        2000.7           0.39          -0.63
        2005.0           0.37          -0.58
        2008.4           0.35          -0.53
        2012.2           0.34          -0.49
        2016.5           0.33          -0.44
        2019.9           0.32          -0.40
        2023.6           0.31          -0.37
        2027.8           0.30          -0.33
        2031.8           0.29          -0.30
        2034.7           0.28          -0.28
        2039.7           0.27          -0.26
        2043.3           0.27          -0.24
        2046.8           0.26          -0.23
        2051.8           0.25          -0.22
        2054.9           0.24          -0.22
        2059.1           0.24          -0.22
        2063.6           0.23          -0.22
        2066.5           0.23          -0.22
        2071.7           0.22          -0.22
        2075.2           0.22          -0.23
        2079.2           0.22          -0.24
        2083.5           0.22          -0.25
        2087.5           0.23          -0.26
        2091.6           0.23          -0.27
        2095.6           0.24          -0.28
        2099.3           0.25          -0.29
        2102.6           0.25          -0.31
        2106.3           0.26          -0.32
        2111.1           0.27          -0.34
        2114.6           0.28          -0.35
        2118.7           0.29          -0.37
        2123.3           0.31          -0.40
        2126.5           0.31          -0.41
        2130.6           0.32          -0.44
        2135.1           0.34          -0.46
        2139.4           0.34          -0.49
        2142.7           0.35          -0.51
        2146.6           0.36          -0.53
        2150.5           0.36          -0.56
        2154.2           0.37          -0.58
        2157.5           0.37          -0.61
        2161.2           0.37          -0.63
        2164.7           0.37          -0.66
        2167.9           0.36          -0.68
        2171.7           0.36          -0.70
        2176.0           0.35          -0.73
        2181.1           0.34          -0.77
        2184.6           0.33          -0.79
        2188.9           0.31          -0.82
        2192.0           0.30          -0.84
        2196.1           0.28          -0.86
        2200.7           0.25          -0.88
        2204.0           0.23          -0.90
        2208.4           0.21          -0.91
        2211.6           0.19          -0.92
        2215.1           0.16          -0.93
        2219.0           0.14          -0.94
        2223.1           0.11          -0.95
        2226.3           0.09          -0.95
        2229.9           0.06          -0.94
        2233.6           0.04          -0.94
        2236.8           0.02          -0.93
        2240.2          -0.00          -0.92
        2243.0          -0.02          -0.91
        2246.5          -0.04          -0.89
        2251.0          -0.05          -0.86
        2254.6          -0.07          -0.83
        2257.9          -0.08          -0.81
        2261.0          -0.08          -0.78
        2264.7          -0.09          -0.74
        2267.1          -0.09          -0.72
        2270.6          -0.09          -0.68
        2273.3          -0.08          -0.65
        2277.1          -0.08          -0.61
        2280.4          -0.07          -0.57
        2284.0          -0.05          -0.52
        2287.9          -0.03          -0.47
        2291.3          -0.02          -0.43
        2295.1           0.01          -0.38
        2298.5           0.03          -0.34
        2302.7           0.06          -0.28
        2306.2           0.09          -0.24
        2309.5           0.12          -0.19
        2313.1           0.15          -0.15
        2317.1           0.18          -0.10
        2319.9           0.21          -0.07
        2324.1           0.25          -0.02
        2327.5           0.28           0.02
        2330.5           0.31           0.06
        2334.7           0.35           0.10
        2338.0           0.38           0.14
        2342.5           0.43           0.18
        2345.9           0.46           0.21
        2350.0           0.49           0.25
        2354.6           0.53           0.29
        2358.2           0.56           0.31
        2361.7           0.59           0.34
        2365.9           0.62           0.37
        2369.6           0.65           0.39
        2373.4           0.67           0.41
        2377.6           0.70           0.43
        2380.4           0.71           0.45
        2384.0           0.73           0.46
        2387.5           0.75           0.48
        2391.4           0.76           0.49
        2394.7           0.78           0.51
        2398.0           0.78           0.52
        2402.3           0.79           0.53
        2405.5           0.80           0.55
        2409.0           0.81           0.56
        2412.7           0.81           0.57
        2416.9           0.81           0.59
        2420.2           0.81           0.60
        2424.5           0.80           0.62
        2428.4           0.80           0.63
        2431.4           0.80           0.65
        2435.8           0.79           0.67
        2439.0           0.78           0.68
        2442.4           0.78           0.70
        2445.4           0.77           0.72
        2449.7           0.76           0.74
        2452.8           0.75           0.76
        2456.8           0.74           0.78
        2459.5           0.73           0.80
        2463.3           0.72           0.82
        2467.3           0.71           0.85
        2471.1           0.70           0.88
        2474.9           0.69           0.91
        2477.7           0.68           0.93
        2481.5           0.67           0.96
        2484.3           0.66           0.98
        2488.0           0.65           1.01
        2491.7           0.63           1.04
        2495.7           0.62           1.07
        2500.1           0.61           1.10
        2502.3           0.60           1.12
        2506.1           0.59           1.15
        2509.6           0.57           1.18
        2513.3           0.56           1.21
        2516.0           0.55           1.23
        2519.9           0.53           1.27
        2522.9           0.52           1.29
        2527.0           0.50           1.32
        2530.2           0.49           1.34
        2534.0           0.48           1.37
        2538.1           0.46           1.40
        2541.4           0.44           1.42
        2545.2           0.43           1.45
        2548.7           0.41           1.47
        2552.5           0.40           1.49
        2556.4           0.38           1.52
        2559.5           0.36           1.54
        2563.3           0.35           1.56
        2567.3           0.33           1.58
        2570.6           0.31           1.60
        2574.7           0.30           1.63
        2577.7           0.28           1.65
        2581.7           0.27           1.67
        2584.1           0.26           1.68
        2588.3           0.24           1.70
        2592.6           0.22           1.73
        2595.9           0.21           1.75
        2599.0           0.20           1.76
        2602.9           0.19           1.78
        2606.2           0.18           1.80
        2608.9           0.17           1.81
        2613.4           0.15           1.83
        2617.5           0.14           1.85
        2621.4           0.13           1.86
        2624.7           0.12           1.88
        2628.8           0.11           1.89
        2632.2           0.10           1.90
        2636.0           0.10           1.92
        2640.1           0.09           1.93
        2643.7           0.08           1.95
        2647.1           0.07           1.96
        2650.7           0.06           1.97
        2653.9           0.06           1.98
        2658.1           0.05           2.00
        2661.6           0.04           2.02
        2665.5           0.03           2.04
        2668.5           0.03           2.05
        2671.9           0.02           2.07
        2674.9           0.01           2.09
        2679.1           0.01           2.11
        2682.8          -0.00           2.13
        2686.6          -0.01           2.16
        2690.3          -0.01           2.18
        2693.1          -0.02           2.20
        2696.4          -0.02           2.22
        2700.0          -0.03           2.25
        2703.4          -0.03           2.27
        2707.1          -0.04           2.30
        2711.1          -0.04           2.33
        2714.0          -0.04           2.35
        2718.1          -0.04           2.37
        2721.5          -0.04           2.39
        2724.5          -0.04           2.41
        2728.0          -0.04           2.43
        2731.8          -0.04           2.45
        2735.5          -0.03           2.47
        2739.0          -0.03           2.48
        2741.9          -0.03           2.49
        2745.1          -0.02           2.51
        2749.0          -0.02           2.52
        2752.6          -0.01           2.53
        2755.9          -0.01           2.54
        2760.4          -0.01           2.55
        2763.9          -0.01           2.56
        2767.5          -0.01           2.57
        2771.4          -0.01           2.58
        2774.9          -0.01           2.58
        2778.6          -0.02           2.59
        2782.1          -0.02           2.60
        2786.0          -0.03           2.61
        2790.7          -0.03           2.63
        2794.0          -0.04           2.64
        2798.3          -0.05           2.66
        2802.4          -0.05           2.67
        2806.0          -0.06           2.69
        2810.1          -0.06           2.70
        2814.1          -0.07           2.72
        2817.6          -0.07           2.74
        2821.6          -0.07           2.75
        2825.3          -0.06           2.77
        2829.2          -0.06           2.78
        2833.7          -0.05           2.80
        2837.4          -0.04           2.82
        2841.4          -0.02           2.83
        2845.8           0.00           2.84
        2850.5           0.03           2.86
        2854.0           0.05           2.86
        2857.8           0.08           2.87
        2862.2           0.12           2.88
        2865.3           0.15           2.88
        2868.9           0.18           2.88