&NAM_CONFIO
  LCDF4 = .TRUE.,
  LLFIOUT = .FALSE.,
  LLFIREAD = .FALSE.,
/ 

&NAM_CONFZ
  NZ_VERB = 0,
  NZ_PROC = 0,
  NB_PROCIO_R = 1,
  NB_PROCIO_W = 1,
  MPI_BUFFER_SIZE = 400,
  LMNH_MPI_BSEND = .TRUE.,
  LMNH_MPI_ALLTOALLV_REMAP = .FALSE.,
  NZ_SPLITTING = 10,
/ 

&NAM_LUNITn
  CINIFILE = 'init_AMMA_',
  CINIFILEPGD = 'init_AMMA__PGD',
/ 

&NAM_DIMn_PRE
  NIMAX = 1024,
  NJMAX = 1024,
/ 

&NAM_DYNn_PRE
  CPRESOPT = 'CRESI',
  NITR = 4,
  XRELAX = 1.,
  LRES = .FALSE.,
  XRES = 1.E-07,
/ 

&NAM_GRID_PRE
  XLON0 = 2.18,
  XLAT0 = 13.47,
  XBETA = 0.,
  XRPK = 1.,
  XLONORI = 350.,
  XLATORI = 37.,
/ 

&NAM_VER_GRID
  LTHINSHELL = .TRUE.,
  NKMAX = 130,
  YZGRID_TYPE = 'MANUAL',
  ZDZGRD = 25,
  ZDZTOP = 25,
  ZZMAX_STRGRD = 0.,
  ZSTRGRD = 0.,
  ZSTRTOP = 0.,
  LSLEVE = .FALSE.,
  XLEN1 = 7500.,
  XLEN2 = 2500.,
/ 

&NAM_CONF_PRE
  LCARTESIAN = .TRUE.,
  LPACK = .TRUE.,
  CEQNSYS = 'DUR',
  NVERB = 10,
  CIDEAL = 'RSOU',
  CZS = 'FLAT',
  LBOUSS = .FALSE.,
  LPERTURB = .TRUE.,
  LFORCING = .TRUE.,
  LSHIFT = .FALSE.,
  L2D_ADV_FRC = .FALSE.,
  L2D_REL_FRC = .FALSE.,
  NHALO = 1,
  JPHEXT = 1,
/ 

&NAM_PERT_PRE
  CPERT_KIND = 'WH',
  XAMPLITH = 1.5,
  XAMPLIRV = 0.0,
  XAMPLIUV = 1.0834,
  XAMPLIWH = 0.1,
  NKWH = 2,
  LSET_RHU = .TRUE.,
  XCENTERZ = 2000.,
  XRADX = 10000.,
  XRADY = 10000.,
  XRADZ = 2000.,
  LWH_LBXU = .FALSE.,
  LWH_LBYV = .FALSE.,
/ 

&NAM_GRIDH_PRE
  XDELTAX = 100.000000,
  XDELTAY = 100.000000,
  XHMAX = 0.,
  NEXPX = 3,
  NEXPY = 1,
  XAX = 10000.,
  XAY = 10000.,
  NIZS = 5,
  NJZS = 5,
/ 

&NAM_GRn_PRE
  CSURF = 'EXTE',
/ 

&NAM_CONFn
  LUSERV = .TRUE.,
  LUSERC = .FALSE.,
  LUSERR = .FALSE.,
  LUSERI = .FALSE.,
  LUSERS = .FALSE.,
  LUSERG = .FALSE.,
  LUSERH = .FALSE.,
  LUSECI = .FALSE.,
/ 

&NAM_LBCn
  CLBCX(1) = 'CYCL',
  CLBCX(2) = 'CYCL',
  CLBCY(1) = 'CYCL',
  CLBCY(2) = 'CYCL',
  NLBLX(:) = 1,
  NLBLY(:) = 1,
  XCPHASE = 20.,
  XCPHASE_PBL = 0.,
  XPOND = 1.0,
/ 

&NAM_PGD_SCHEMES
  CSEA = 'FLUX',
/ 

&NAM_COVER
  XUNIF_COVER(1) = 1.,
  XUNIF_COVER(6) = 0.,
/ 

&NAM_SEABATHY
  XUNIF_SEABATHY = 5.,
/ 

&NAM_PREP_SEAFLUX
  XSST_UNIF = 280.,
/ 

&NAM_DATA_SEAFLUX
  LSST_DATA = .FALSE.,
  NTIME_SST = 0,
  NYEAR_SST(1) = 1980,
  NMONTH_SST(1) = 1,
  NDAY_SST(1) = 1,
  XTIME_SST(1) = 0.,
  XUNIF_SST(1) = 280.,
/ 

&NAM_FRAC
  LECOCLIMAP = .TRUE.,
  XUNIF_NATURE = 1.,
/ 

&NAM_DATA_TSZ0
  NTIME = 0,
  XUNIF_DTS(1) = -0.250,
/ 

&NAM_DATA_ISBA
  NTIME = 0,
  XUNIF_Z0(1,1) = 0,
/ 

&NAM_ISBA
  XUNIF_CLAY = 1.,
  XUNIF_SAND = 0.,
  XUNIF_RUNOFFB = 0.5,
  CISBA = '2-L',
  CPHOTO = 'NON',
  NPATCH = 1,
  NGROUND_LAYER = 2,
/ 

&NAM_MOSAIn
  NGROUND_LAYER = 11,
  CCDRAG = 'SURFEX',
/ 

&NAM_DATA_MOSAI
  XUNIF_Z0 = 0.035,
  XUNIF_ALB = 0.164,
  XUNIF_EMIS = 0.99 ,
  XUNIF_Z0_O_Z0H = 1.   ,
  XUNIF_BETA = 0.32 ,
  XUNIF_ITHGRD = 600. ,
/ 

&NAM_PREP_MOSAI
  XTG = 286.4,
  XTS = 286.4,
/ 

&NAM_PREP_SURF_ATM
  NYEAR = 1980,
  NMONTH = 1,
  NDAY = 1,
  XTIME = 0.,
/ 

&NAM_PREP_ISBA
  XHUG_SURF = 0.,
  XHUG_ROOT = 0.,
  XHUG_DEEP = 0.,
  XHUGI_SURF = 1.,
  XHUGI_ROOT = 1.,
  XHUGI_DEEP = 1.,
  XTG_SURF = 280,
  XTG_ROOT = 280,
  XTG_DEEP = 280,
  LISBA_CANOPY = .FALSE.,
  NYEAR = 1980,
  NMONTH = 1,
  NDAY = 1,
  XTIME = 0.,
/ 

&NAM_DEEPSOIL
  LPHYSDOMC = .FALSE.,
  LDEEPSOIL = .FALSE.,
/ 

ZHAT
0
20
42
66
92
120
150
182
217
256
298
342
390
440
490
540
590
640
690
740
790
840
890
940
990
1040
1090
1140
1190
1240
1290
1340
1390
1440
1490
1540
1590
1640
1690
1740
1790
1840
1890
1940
1990
2040
2090
2140
2190
2240
2290
2340
2390
2440
2490
2545
2605
2671
2743
2822
2910
3012
3134
3280
3455
3665
3900
4150
4400
4650
4900
5150
5400
5650
5900
6150
6400
6650
6900
7150
7400
7650
7900
8150
8400
8650
8900
9150
9400
9650
9900
10150
10400
10650
10900
11150
11400
11650
11900
12150
12400
12650
12900
13150
13400
13650
13900
14150
14400
14650
14900
15150
15400
15650
15900
16150
16400
16650
16900
17150
17400
17650
17900
18150
18400
18650
18900
19150
19400
19650
19900

RSOU
2006 07 10 21600
ZUVTHDMR   
0.00 
98800.00 
300.20 
0.01800000 
36   
           0.0           1.00           1.90
         200.0           3.60           5.60
         300.0           5.50           5.80
         500.0           4.30           4.90
        1000.0           1.30           2.50
        1300.0          -0.60           1.10
        1800.0          -3.60          -1.20
        2500.0          -8.60          -1.40
        3000.0         -12.20          -1.50
        3700.0         -16.70          -1.70
        4200.0         -14.10          -2.40
        5000.0          -8.00          -3.60
        6000.0          -6.80          -1.90
        7500.0          -4.90           0.60
        8000.0          -4.30           1.40
        9000.0          -6.00           2.00
        9500.0          -7.20          -0.40
       10000.0          -8.50          -2.80
       11000.0         -11.10          -6.30
       12000.0         -12.00          -4.60
       15000.0         -12.80           0.40
       15500.0         -12.90           1.20
       16000.0         -13.00           2.00
       17000.0         -13.00           1.80
       18000.0         -13.00           1.50
       20000.0         -13.00           1.00
       21000.0         -13.00           1.00
       22000.0         -13.00           1.00
       23000.0         -13.00           1.00
       24000.0         -13.00           1.00
       25000.0         -13.00           1.00
       30000.0         -13.00           1.00
       35000.0         -13.00           1.00
       40000.0         -13.00           1.00
       45000.0         -13.00           1.00
       50000.0         -13.00           1.00
36   
         200.0         301.80     0.01800000
         300.0         302.50     0.01800000
         500.0         304.10     0.01800000
        1000.0         308.40     0.01280000
        1300.0         309.30     0.01000000
        1800.0         311.30     0.00880000
        2500.0         314.10     0.00720000
        3000.0         314.60     0.00600000
        3700.0         315.40     0.00480000
        4200.0         317.40     0.00380000
        5000.0         321.70     0.00280000
        6000.0         327.10     0.00100000
        7500.0         334.50     0.00060000
        8000.0         337.00     0.00060000
        9000.0         340.00     0.00050000
        9500.0         341.50     0.00040000
       10000.0         343.20     0.00030000
       11000.0         346.40     0.00020000
       12000.0         349.50     0.00000000
       15000.0         361.00     0.00000000
       15500.0         363.60     0.00000000
       16000.0         369.00     0.00000000
       17000.0         390.50     0.00000000
       18000.0         416.50     0.00000000
       20000.0         488.50     0.00000000
       21000.0         502.90     0.00000000
       22000.0         536.00     0.00000000
       23000.0         566.10     0.00000000
       24000.0         597.00     0.00000000
       25000.0         627.60     0.00000000
       30000.0         821.90     0.00000000
       35000.0        1049.70     0.00000000
       40000.0        1337.80     0.00000000
       45000.0        1567.30     0.00000000
       50000.0        1947.00     0.00000000

ZFRC
37
2006 07 10 21600
0.00 
98800.00 
300.20 
0.01800000 
36   
       0.00000        0.00000        0.00000        0.00000    0.00000e+00 0.0000000000e+00 -1.1000000086e-04 7.9999999514e-08 0.0000000000e+00 0.0000000000e+00
     200.00000        0.00000        0.00000        0.00000    0.00000e+00 0.0000000000e+00 -1.1000000086e-04 7.9999999514e-08 0.0000000000e+00 0.0000000000e+00
     300.00000        0.00000        0.00000        0.00000    0.00000e+00 0.0000000000e+00 -9.9999997474e-05 6.9999998686e-08 0.0000000000e+00 0.0000000000e+00
     500.00000        0.00000        0.00000        0.00000    0.00000e+00 0.0000000000e+00 -9.9999997474e-05 6.9999998686e-08 0.0000000000e+00 0.0000000000e+00
    1000.00000        0.00000        0.00000        0.00000    0.00000e+00 0.0000000000e+00 -9.0000001364e-05 5.9999997859e-08 0.0000000000e+00 0.0000000000e+00
    1300.00000        0.00000        0.00000        0.00000    0.00000e+00 0.0000000000e+00 -7.0000001870e-05 3.9999999757e-08 0.0000000000e+00 0.0000000000e+00
    1800.00000        0.00000        0.00000        0.00000    0.00000e+00 0.0000000000e+00 -4.9999998737e-05 2.9999998929e-08 0.0000000000e+00 0.0000000000e+00
    2500.00000        0.00000        0.00000        0.00000    0.00000e+00 0.0000000000e+00 -2.9999999242e-05 9.9999999392e-09 0.0000000000e+00 0.0000000000e+00
    3000.00000        0.00000        0.00000        0.00000    0.00000e+00 0.0000000000e+00 -9.9999997474e-06 0.0000000000e+00 0.0000000000e+00 0.0000000000e+00
    3700.00000        0.00000        0.00000        0.00000    0.00000e+00 0.0000000000e+00 -9.9999997474e-06 0.0000000000e+00 0.0000000000e+00 0.0000000000e+00
    4200.00000        0.00000        0.00000        0.00000    0.00000e+00 0.0000000000e+00 -9.9999997474e-06 0.0000000000e+00 0.0000000000e+00 0.0000000000e+00
    5000.00000        0.00000        0.00000        0.00000    0.00000e+00 0.0000000000e+00 -9.9999997474e-06 0.0000000000e+00 0.0000000000e+00 0.0000000000e+00
    6000.00000        0.00000        0.00000        0.00000    0.00000e+00 0.0000000000e+00 -9.9999997474e-06 0.0000000000e+00 0.0000000000e+00 0.0000000000e+00
    7500.00000        0.00000        0.00000        0.00000    0.00000e+00 0.0000000000e+00 0.0000000000e+00 0.0000000000e+00 0.0000000000e+00 0.0000000000e+00
    8000.00000        0.00000        0.00000        0.00000    0.00000e+00 0.0000000000e+00 0.0000000000e+00 0.0000000000e+00 0.0000000000e+00 0.0000000000e+00
    9000.00000        0.00000        0.00000        0.00000    0.00000e+00 0.0000000000e+00 0.0000000000e+00 0.0000000000e+00 0.0000000000e+00 0.0000000000e+00
    9500.00000        0.00000        0.00000        0.00000    0.00000e+00 0.0000000000e+00 0.0000000000e+00 0.0000000000e+00 0.0000000000e+00 0.0000000000e+00
   10000.00000        0.00000        0.00000        0.00000    0.00000e+00 0.0000000000e+00 0.0000000000e+00 0.0000000000e+00 0.0000000000e+00 0.0000000000e+00
   11000.00000        0.00000        0.00000        0.00000    0.00000e+00 0.0000000000e+00 0.0000000000e+00 0.0000000000e+00 0.0000000000e+00 0.0000000000e+00
   12000.00000        0.00000        0.00000        0.00000    0.00000e+00 0.0000000000e+00 0.0000000000e+00 0.0000000000e+00 0.0000000000e+00 0.0000000000e+00
   15000.00000        0.00000        0.00000        0.00000    0.00000e+00 0.0000000000e+00 0.0000000000e+00 0.0000000000e+00 0.0000000000e+00 0.0000000000e+00
   15500.00000        0.00000        0.00000        0.00000    0.00000e+00 0.0000000000e+00 0.0000000000e+00 0.0000000000e+00 0.0000000000e+00 0.0000000000e+00
   16000.00000        0.00000        0.00000        0.00000    0.00000e+00 0.0000000000e+00 0.0000000000e+00 0.0000000000e+00 0.0000000000e+00 0.0000000000e+00
   17000.00000        0.00000        0.00000        0.00000    0.00000e+00 0.0000000000e+00 0.0000000000e+00 0.0000000000e+00 0.0000000000e+00 0.0000000000e+00
   18000.00000        0.00000        0.00000        0.00000    0.00000e+00 0.0000000000e+00 0.0000000000e+00 0.0000000000e+00 0.0000000000e+00 0.0000000000e+00
   20000.00000        0.00000        0.00000        0.00000    0.00000e+00 0.0000000000e+00 0.0000000000e+00 0.0000000000e+00 0.0000000000e+00 0.0000000000e+00
   21000.00000        0.00000        0.00000        0.00000    0.00000e+00 0.0000000000e+00 0.0000000000e+00 0.0000000000e+00 0.0000000000e+00 0.0000000000e+00
   22000.00000        0.00000        0.00000        0.00000    0.00000e+00 0.0000000000e+00 0.0000000000e+00 0.0000000000e+00 0.0000000000e+00 0.0000000000e+00
   23000.00000        0.00000        0.00000        0.00000    0.00000e+00 0.0000000000e+00 0.0000000000e+00 0.0000000000e+00 0.0000000000e+00 0.0000000000e+00
   24000.00000        0.00000        0.00000        0.00000    0.00000e+00 0.0000000000e+00 0.0000000000e+00 0.0000000000e+00 0.0000000000e+00 0.0000000000e+00
   25000.00000        0.00000        0.00000        0.00000    0.00000e+00 0.0000000000e+00 0.0000000000e+00 0.0000000000e+00 0.0000000000e+00 0.0000000000e+00
   30000.00000        0.00000        0.00000        0.00000    0.00000e+00 0.0000000000e+00 0.0000000000e+00 0.0000000000e+00 0.0000000000e+00 0.0000000000e+00
   35000.00000        0.00000        0.00000        0.00000    0.00000e+00 0.0000000000e+00 0.0000000000e+00 0.0000000000e+00 0.0000000000e+00 0.0000000000e+00
   40000.00000        0.00000        0.00000        0.00000    0.00000e+00 0.0000000000e+00 0.0000000000e+00 0.0000000000e+00 0.0000000000e+00 0.0000000000e+00
   45000.00000        0.00000        0.00000        0.00000    0.00000e+00 0.0000000000e+00 0.0000000000e+00 0.0000000000e+00 0.0000000000e+00 0.0000000000e+00
   50000.00000        0.00000        0.00000        0.00000    0.00000e+00 0.0000000000e+00 0.0000000000e+00 0.0000000000e+00 0.0000000000e+00 0.0000000000e+00
2006 07 10 23400
0.00 
98800.00 
300.20 
0.01800000 
36   
       0.00000        0.00000        0.00000        0.00000    0.00000e+00 0.0000000000e+00 -9.6666670288e-05 7.3333332296e-08 0.0000000000e+00 0.0000000000e+00
     200.00000        0.00000        0.00000        0.00000    0.00000e+00 0.0000000000e+00 -9.6666670288e-05 7.3333332296e-08 0.0000000000e+00 0.0000000000e+00
     300.00000        0.00000        0.00000        0.00000    0.00000e+00 0.0000000000e+00 -8.8333334133e-05 6.5000001825e-08 0.0000000000e+00 0.0000000000e+00
     500.00000        0.00000        0.00000        0.00000    0.00000e+00 0.0000000000e+00 -8.8333334133e-05 6.3333331468e-08 0.0000000000e+00 0.0000000000e+00
    1000.00000        0.00000        0.00000        0.00000    0.00000e+00 0.0000000000e+00 -7.9999997979e-05 5.5000000998e-08 0.0000000000e+00 0.0000000000e+00
    1300.00000        0.00000        0.00000        0.00000    0.00000e+00 0.0000000000e+00 -6.1666665715e-05 3.6666666148e-08 0.0000000000e+00 0.0000000000e+00
    1800.00000        0.00000        0.00000        0.00000    0.00000e+00 0.0000000000e+00 -4.3333333451e-05 2.6666667097e-08 0.0000000000e+00 0.0000000000e+00
    2500.00000        0.00000        0.00000        0.00000    0.00000e+00 0.0000000000e+00 -2.6666666599e-05 8.3333331347e-09 0.0000000000e+00 0.0000000000e+00
    3000.00000        0.00000        0.00000        0.00000    0.00000e+00 0.0000000000e+00 -8.3333334260e-06 0.0000000000e+00 0.0000000000e+00 0.0000000000e+00
    3700.00000        0.00000        0.00000        0.00000    0.00000e+00 0.0000000000e+00 -8.3333334260e-06 0.0000000000e+00 0.0000000000e+00 0.0000000000e+00
    4200.00000        0.00000        0.00000        0.00000    0.00000e+00 0.0000000000e+00 -8.3333334260e-06 0.0000000000e+00 0.0000000000e+00 0.0000000000e+00
    5000.00000        0.00000        0.00000        0.00000    0.00000e+00 0.0000000000e+00 -8.3333334260e-06 0.0000000000e+00 0.0000000000e+00 0.0000000000e+00
    6000.00000        0.00000        0.00000        0.00000    0.00000e+00 0.0000000000e+00 -8.3333334260e-06 0.0000000000e+00 0.0000000000e+00 0.0000000000e+00
    7500.00000        0.00000        0.00000        0.00000    0.00000e+00 0.0000000000e+00 0.0000000000e+00 0.0000000000e+00 0.0000000000e+00 0.0000000000e+00
    8000.00000        0.00000        0.00000        0.00000    0.00000e+00 0.0000000000e+00 0.0000000000e+00 0.0000000000e+00 0.0000000000e+00 0.0000000000e+00
    9000.00000        0.00000        0.00000        0.00000    0.00000e+00 0.0000000000e+00 0.0000000000e+00 0.0000000000e+00 0.0000000000e+00 0.0000000000e+00
    9500.00000        0.00000        0.00000        0.00000    0.00000e+00 0.0000000000e+00 0.0000000000e+00 0.0000000000e+00 0.0000000000e+00 0.0000000000e+00
   10000.00000        0.00000        0.00000        0.00000    0.00000e+00 0.0000000000e+00 0.0000000000e+00 0.0000000000e+00 0.0000000000e+00 0.0000000000e+00
   11000.00000        0.00000        0.00000        0.00000    0.00000e+00 0.0000000000e+00 0.0000000000e+00 0.0000000000e+00 0.0000000000e+00 0.0000000000e+00
   12000.00000        0.00000        0.00000        0.00000    0.00000e+00 0.0000000000e+00 0.0000000000e+00 0.0000000000e+00 0.0000000000e+00 0.0000000000e+00
   15000.00000        0.00000        0.00000        0.00000    0.00000e+00 0.0000000000e+00 0.0000000000e+00 0.0000000000e+00 0.0000000000e+00 0.0000000000e+00
   15500.00000        0.00000        0.00000        0.00000    0.00000e+00 0.0000000000e+00 0.0000000000e+00 0.0000000000e+00 0.0000000000e+00 0.0000000000e+00
   16000.00000        0.00000        0.00000        0.00000    0.00000e+00 0.0000000000e+00 0.0000000000e+00 0.0000000000e+00 0.0000000000e+00 0.0000000000e+00
   17000.00000        0.00000        0.00000        0.00000    0.00000e+00 0.0000000000e+00 0.0000000000e+00 0.0000000000e+00 0.0000000000e+00 0.0000000000e+00
   18000.00000        0.00000        0.00000        0.00000    0.00000e+00 0.0000000000e+00 0.0000000000e+00 0.0000000000e+00 0.0000000000e+00 0.0000000000e+00
   20000.00000        0.00000        0.00000        0.00000    0.00000e+00 0.0000000000e+00 0.0000000000e+00 0.0000000000e+00 0.0000000000e+00 0.0000000000e+00
   21000.00000        0.00000        0.00000        0.00000    0.00000e+00 0.0000000000e+00 0.0000000000e+00 0.0000000000e+00 0.0000000000e+00 0.0000000000e+00
   22000.00000        0.00000        0.00000        0.00000    0.00000e+00 0.0000000000e+00 0.0000000000e+00 0.0000000000e+00 0.0000000000e+00 0.0000000000e+00
   23000.00000        0.00000        0.00000        0.00000    0.00000e+00 0.0000000000e+00 0.0000000000e+00 0.0000000000e+00 0.0000000000e+00 0.0000000000e+00
   24000.00000        0.00000        0.00000        0.00000    0.00000e+00 0.0000000000e+00 0.0000000000e+00 0.0000000000e+00 0.0000000000e+00 0.0000000000e+00
   25000.00000        0.00000        0.00000        0.00000    0.00000e+00 0.0000000000e+00 0.0000000000e+00 0.0000000000e+00 0.0000000000e+00 0.0000000000e+00
   30000.00000        0.00000        0.00000        0.00000    0.00000e+00 0.0000000000e+00 0.0000000000e+00 0.0000000000e+00 0.0000000000e+00 0.0000000000e+00
   35000.00000        0.00000        0.00000        0.00000    0.00000e+00 0.0000000000e+00 0.0000000000e+00 0.0000000000e+00 0.0000000000e+00 0.0000000000e+00
   40000.00000        0.00000        0.00000        0.00000    0.00000e+00 0.0000000000e+00 0.0000000000e+00 0.0000000000e+00 0.0000000000e+00 0.0000000000e+00
   45000.00000        0.00000        0.00000        0.00000    0.00000e+00 0.0000000000e+00 0.0000000000e+00 0.0000000000e+00 0.0000000000e+00 0.0000000000e+00
   50000.00000        0.00000        0.00000        0.00000    0.00000e+00 0.0000000000e+00 0.0000000000e+00 0.0000000000e+00 0.0000000000e+00 0.0000000000e+00
2006 07 10 25199
0.00 
98800.00 
300.20 
0.01800000 
36   
       0.00000        0.00000        0.00000        0.00000    0.00000e+00 0.0000000000e+00 -8.3333332441e-05 6.6666665077e-08 0.0000000000e+00 0.0000000000e+00
     200.00000        0.00000        0.00000        0.00000    0.00000e+00 0.0000000000e+00 -8.3333332441e-05 6.6666665077e-08 0.0000000000e+00 0.0000000000e+00
     300.00000        0.00000        0.00000        0.00000    0.00000e+00 0.0000000000e+00 -7.6666663517e-05 5.9999997859e-08 0.0000000000e+00 0.0000000000e+00
     500.00000        0.00000        0.00000        0.00000    0.00000e+00 0.0000000000e+00 -7.6666663517e-05 5.6666667803e-08 0.0000000000e+00 0.0000000000e+00
    1000.00000        0.00000        0.00000        0.00000    0.00000e+00 0.0000000000e+00 -7.0000001870e-05 5.0000000584e-08 0.0000000000e+00 0.0000000000e+00
    1300.00000        0.00000        0.00000        0.00000    0.00000e+00 0.0000000000e+00 -5.3333333199e-05 3.3333332539e-08 0.0000000000e+00 0.0000000000e+00
    1800.00000        0.00000        0.00000        0.00000    0.00000e+00 0.0000000000e+00 -3.6666668166e-05 2.3333333488e-08 0.0000000000e+00 0.0000000000e+00
    2500.00000        0.00000        0.00000        0.00000    0.00000e+00 0.0000000000e+00 -2.3333333957e-05 6.6666667742e-09 0.0000000000e+00 0.0000000000e+00
    3000.00000        0.00000        0.00000        0.00000    0.00000e+00 0.0000000000e+00 -6.6666666498e-06 0.0000000000e+00 0.0000000000e+00 0.0000000000e+00
    3700.00000        0.00000        0.00000        0.00000    0.00000e+00 0.0000000000e+00 -6.6666666498e-06 0.0000000000e+00 0.0000000000e+00 0.0000000000e+00
    4200.00000        0.00000        0.00000        0.00000    0.00000e+00 0.0000000000e+00 -6.6666666498e-06 0.0000000000e+00 0.0000000000e+00 0.0000000000e+00
    5000.00000        0.00000        0.00000        0.00000    0.00000e+00 0.0000000000e+00 -6.6666666498e-06 0.0000000000e+00 0.0000000000e+00 0.0000000000e+00
    6000.00000        0.00000        0.00000        0.00000    0.00000e+00 0.0000000000e+00 -6.6666666498e-06 0.0000000000e+00 0.0000000000e+00 0.0000000000e+00
    7500.00000        0.00000        0.00000        0.00000    0.00000e+00 0.0000000000e+00 0.0000000000e+00 0.0000000000e+00 0.0000000000e+00 0.0000000000e+00
    8000.00000        0.00000        0.00000        0.00000    0.00000e+00 0.0000000000e+00 0.0000000000e+00 0.0000000000e+00 0.0000000000e+00 0.0000000000e+00
    9000.00000        0.00000        0.00000        0.00000    0.00000e+00 0.0000000000e+00 0.0000000000e+00 0.0000000000e+00 0.0000000000e+00 0.0000000000e+00
    9500.00000        0.00000        0.00000        0.00000    0.00000e+00 0.0000000000e+00 0.0000000000e+00 0.0000000000e+00 0.0000000000e+00 0.0000000000e+00
   10000.00000        0.00000        0.00000        0.00000    0.00000e+00 0.0000000000e+00 0.0000000000e+00 0.0000000000e+00 0.0000000000e+00 0.0000000000e+00
   11000.00000        0.00000        0.00000        0.00000    0.00000e+00 0.0000000000e+00 0.0000000000e+00 0.0000000000e+00 0.0000000000e+00 0.0000000000e+00
   12000.00000        0.00000        0.00000        0.00000    0.00000e+00 0.0000000000e+00 0.0000000000e+00 0.0000000000e+00 0.0000000000e+00 0.0000000000e+00
   15000.00000        0.00000        0.00000        0.00000    0.00000e+00 0.0000000000e+00 0.0000000000e+00 0.0000000000e+00 0.0000000000e+00 0.0000000000e+00
   15500.00000        0.00000        0.00000        0.00000    0.00000e+00 0.0000000000e+00 0.0000000000e+00 0.0000000000e+00 0.0000000000e+00 0.0000000000e+00
   16000.00000        0.00000        0.00000        0.00000    0.00000e+00 0.0000000000e+00 0.0000000000e+00 0.0000000000e+00 0.0000000000e+00 0.0000000000e+00
   17000.00000        0.00000        0.00000        0.00000    0.00000e+00 0.0000000000e+00 0.0000000000e+00 0.0000000000e+00 0.0000000000e+00 0.0000000000e+00
   18000.00000        0.00000        0.00000        0.00000    0.00000e+00 0.0000000000e+00 0.0000000000e+00 0.0000000000e+00 0.0000000000e+00 0.0000000000e+00
   20000.00000        0.00000        0.00000        0.00000    0.00000e+00 0.0000000000e+00 0.0000000000e+00 0.0000000000e+00 0.0000000000e+00 0.0000000000e+00
   21000.00000        0.00000        0.00000        0.00000    0.00000e+00 0.0000000000e+00 0.0000000000e+00 0.0000000000e+00 0.0000000000e+00 0.0000000000e+00
   22000.00000        0.00000        0.00000        0.00000    0.00000e+00 0.0000000000e+00 0.0000000000e+00 0.0000000000e+00 0.0000000000e+00 0.0000000000e+00
   23000.00000        0.00000        0.00000        0.00000    0.00000e+00 0.0000000000e+00 0.0000000000e+00 0.0000000000e+00 0.0000000000e+00 0.0000000000e+00
   24000.00000        0.00000        0.00000        0.00000    0.00000e+00 0.0000000000e+00 0.0000000000e+00 0.0000000000e+00 0.0000000000e+00 0.0000000000e+00
   25000.00000        0.00000        0.00000        0.00000    0.00000e+00 0.0000000000e+00 0.0000000000e+00 0.0000000000e+00 0.0000000000e+00 0.0000000000e+00
   30000.00000        0.00000        0.00000        0.00000    0.00000e+00 0.0000000000e+00 0.0000000000e+00 0.0000000000e+00 0.0000000000e+00 0.0000000000e+00
   35000.00000        0.00000        0.00000        0.00000    0.00000e+00 0.0000000000e+00 0.0000000000e+00 0.0000000000e+00 0.0000000000e+00 0.0000000000e+00
   40000.00000        0.00000        0.00000        0.00000    0.00000e+00 0.0000000000e+00 0.0000000000e+00 0.0000000000e+00 0.0000000000e+00 0.0000000000e+00
   45000.00000        0.00000        0.00000        0.00000    0.00000e+00 0.0000000000e+00 0.0000000000e+00 0.0000000000e+00 0.0000000000e+00 0.0000000000e+00
   50000.00000        0.00000        0.00000        0.00000    0.00000e+00 0.0000000000e+00 0.0000000000e+00 0.0000000000e+00 0.0000000000e+00 0.0000000000e+00
2006 07 10 27000
0.00 
98800.00 
300.20 
0.01800000 
36   
       0.00000        0.00000        0.00000        0.00000    0.00000e+00 0.0000000000e+00 -7.0000001870e-05 5.9999997859e-08 0.0000000000e+00 0.0000000000e+00
     200.00000        0.00000        0.00000        0.00000    0.00000e+00 0.0000000000e+00 -7.0000001870e-05 5.9999997859e-08 0.0000000000e+00 0.0000000000e+00
     300.00000        0.00000        0.00000        0.00000    0.00000e+00 0.0000000000e+00 -6.5000000177e-05 5.5000000998e-08 0.0000000000e+00 0.0000000000e+00
     500.00000        0.00000        0.00000        0.00000    0.00000e+00 0.0000000000e+00 -6.5000000177e-05 5.0000000584e-08 0.0000000000e+00 0.0000000000e+00
    1000.00000        0.00000        0.00000        0.00000    0.00000e+00 0.0000000000e+00 -5.9999998484e-05 4.5000000171e-08 0.0000000000e+00 0.0000000000e+00
    1300.00000        0.00000        0.00000        0.00000    0.00000e+00 0.0000000000e+00 -4.5000000682e-05 2.9999998929e-08 0.0000000000e+00 0.0000000000e+00
    1800.00000        0.00000        0.00000        0.00000    0.00000e+00 0.0000000000e+00 -2.9999999242e-05 1.9999999878e-08 0.0000000000e+00 0.0000000000e+00
    2500.00000        0.00000        0.00000        0.00000    0.00000e+00 0.0000000000e+00 -1.9999999495e-05 4.9999999696e-09 0.0000000000e+00 0.0000000000e+00
    3000.00000        0.00000        0.00000        0.00000    0.00000e+00 0.0000000000e+00 -4.9999998737e-06 0.0000000000e+00 0.0000000000e+00 0.0000000000e+00
    3700.00000        0.00000        0.00000        0.00000    0.00000e+00 0.0000000000e+00 -4.9999998737e-06 0.0000000000e+00 0.0000000000e+00 0.0000000000e+00
    4200.00000        0.00000        0.00000        0.00000    0.00000e+00 0.0000000000e+00 -4.9999998737e-06 0.0000000000e+00 0.0000000000e+00 0.0000000000e+00
    5000.00000        0.00000        0.00000        0.00000    0.00000e+00 0.0000000000e+00 -4.9999998737e-06 0.0000000000e+00 0.0000000000e+00 0.0000000000e+00
    6000.00000        0.00000        0.00000        0.00000    0.00000e+00 0.0000000000e+00 -4.9999998737e-06 0.0000000000e+00 0.0000000000e+00 0.0000000000e+00
    7500.00000        0.00000        0.00000        0.00000    0.00000e+00 0.0000000000e+00 0.0000000000e+00 0.0000000000e+00 0.0000000000e+00 0.0000000000e+00
    8000.00000        0.00000        0.00000        0.00000    0.00000e+00 0.0000000000e+00 0.0000000000e+00 0.0000000000e+00 0.0000000000e+00 0.0000000000e+00
    9000.00000        0.00000        0.00000        0.00000    0.00000e+00 0.0000000000e+00 0.0000000000e+00 0.0000000000e+00 0.0000000000e+00 0.0000000000e+00
    9500.00000        0.00000        0.00000        0.00000    0.00000e+00 0.0000000000e+00 0.0000000000e+00 0.0000000000e+00 0.0000000000e+00 0.0000000000e+00
   10000.00000        0.00000        0.00000        0.00000    0.00000e+00 0.0000000000e+00 0.0000000000e+00 0.0000000000e+00 0.0000000000e+00 0.0000000000e+00
   11000.00000        0.00000        0.00000        0.00000    0.00000e+00 0.0000000000e+00 0.0000000000e+00 0.0000000000e+00 0.0000000000e+00 0.0000000000e+00
   12000.00000        0.00000        0.00000        0.00000    0.00000e+00 0.0000000000e+00 0.0000000000e+00 0.0000000000e+00 0.0000000000e+00 0.0000000000e+00
   15000.00000        0.00000        0.00000        0.00000    0.00000e+00 0.0000000000e+00 0.0000000000e+00 0.0000000000e+00 0.0000000000e+00 0.0000000000e+00
   15500.00000        0.00000        0.00000        0.00000    0.00000e+00 0.0000000000e+00 0.0000000000e+00 0.0000000000e+00 0.0000000000e+00 0.0000000000e+00
   16000.00000        0.00000        0.00000        0.00000    0.00000e+00 0.0000000000e+00 0.0000000000e+00 0.0000000000e+00 0.0000000000e+00 0.0000000000e+00
   17000.00000        0.00000        0.00000        0.00000    0.00000e+00 0.0000000000e+00 0.0000000000e+00 0.0000000000e+00 0.0000000000e+00 0.0000000000e+00
   18000.00000        0.00000        0.00000        0.00000    0.00000e+00 0.0000000000e+00 0.0000000000e+00 0.0000000000e+00 0.0000000000e+00 0.0000000000e+00
   20000.00000        0.00000        0.00000        0.00000    0.00000e+00 0.0000000000e+00 0.0000000000e+00 0.0000000000e+00 0.0000000000e+00 0.0000000000e+00
   21000.00000        0.00000        0.00000        0.00000    0.00000e+00 0.0000000000e+00 0.0000000000e+00 0.0000000000e+00 0.0000000000e+00 0.0000000000e+00
   22000.00000        0.00000        0.00000        0.00000    0.00000e+00 0.0000000000e+00 0.0000000000e+00 0.0000000000e+00 0.0000000000e+00 0.0000000000e+00
   23000.00000        0.00000        0.00000        0.00000    0.00000e+00 0.0000000000e+00 0.0000000000e+00 0.0000000000e+00 0.0000000000e+00 0.0000000000e+00
   24000.00000        0.00000        0.00000        0.00000    0.00000e+00 0.0000000000e+00 0.0000000000e+00 0.0000000000e+00 0.0000000000e+00 0.0000000000e+00
   25000.00000        0.00000        0.00000        0.00000    0.00000e+00 0.0000000000e+00 0.0000000000e+00 0.0000000000e+00 0.0000000000e+00 0.0000000000e+00
   30000.00000        0.00000        0.00000        0.00000    0.00000e+00 0.0000000000e+00 0.0000000000e+00 0.0000000000e+00 0.0000000000e+00 0.0000000000e+00