&NAM_CONFIO
  LCDF4 = .TRUE.,
  LLFIOUT = .FALSE.,
  LLFIREAD = .FALSE.,
/ 

&NAM_CONFZ
  NZ_VERB = 0,
  NZ_PROC = 0,
  NB_PROCIO_R = 1,
  NB_PROCIO_W = 1,
  MPI_BUFFER_SIZE = 400,
  LMNH_MPI_BSEND = .TRUE.,
  LMNH_MPI_ALLTOALLV_REMAP = .FALSE.,
  NZ_SPLITTING = 10,
/ 

&NAM_LUNITn
  CINIFILE = 'init_GABL4',
  CINIFILEPGD = 'init_GABL4_PGD',
/ 

&NAM_DIMn_PRE
  NIMAX = 1024,
  NJMAX = 1024,
/ 

&NAM_DYNn_PRE
  CPRESOPT = 'CRESI',
  NITR = 4,
  XRELAX = 1.,
  LRES = .FALSE.,
  XRES = 1.E-07,
/ 

&NAM_GRID_PRE
  XLON0 = 123.3,
  XLAT0 = -75.09,
  XBETA = 0.,
  XRPK = 1.,
  XLONORI = 350.,
  XLATORI = 37.,
/ 

&NAM_VER_GRID
  LTHINSHELL = .TRUE.,
  NKMAX = 160,
  YZGRID_TYPE = 'FUNCTN',
  ZDZGRD = 1.000000,
  ZDZTOP = 1.000000,
  ZZMAX_STRGRD = 1000.000000,
  ZSTRGRD = 0,
  ZSTRTOP = 0.000000,
  LSLEVE = .FALSE.,
  XLEN1 = 7500.,
  XLEN2 = 2500.,
/ 

&NAM_CONF_PRE
  LCARTESIAN = .TRUE.,
  LPACK = .TRUE.,
  CEQNSYS = 'DUR',
  NVERB = 10,
  CIDEAL = 'RSOU',
  CZS = 'FLAT',
  LBOUSS = .FALSE.,
  LPERTURB = .TRUE.,
  LFORCING = .TRUE.,
  LSHIFT = .FALSE.,
  L2D_ADV_FRC = .FALSE.,
  L2D_REL_FRC = .FALSE.,
  NHALO = 1,
  JPHEXT = 1,
/ 

&NAM_PERT_PRE
  CPERT_KIND = 'WH',
  XAMPLITH = 1.5,
  XAMPLIRV = 0.0,
  XAMPLIUV = 1.0834,
  XAMPLIWH = 0.1,
  NKWH = 2,
  LSET_RHU = .TRUE.,
  XCENTERZ = 2000.,
  XRADX = 10000.,
  XRADY = 10000.,
  XRADZ = 2000.,
  LWH_LBXU = .FALSE.,
  LWH_LBYV = .FALSE.,
/ 

&NAM_GRIDH_PRE
  XDELTAX = 5.000000,
  XDELTAY = 5.000000,
  XHMAX = 0.,
  NEXPX = 3,
  NEXPY = 1,
  XAX = 10000.,
  XAY = 10000.,
  NIZS = 5,
  NJZS = 5,
/ 

&NAM_GRn_PRE
  CSURF = 'EXTE',
/ 

&NAM_CONFn
  LUSERV = .TRUE.,
  LUSERC = .FALSE.,
  LUSERR = .FALSE.,
  LUSERI = .FALSE.,
  LUSERS = .FALSE.,
  LUSERG = .FALSE.,
  LUSERH = .FALSE.,
  LUSECI = .FALSE.,
/ 

&NAM_LBCn
  CLBCX(1) = 'CYCL',
  CLBCX(2) = 'CYCL',
  CLBCY(1) = 'CYCL',
  CLBCY(2) = 'CYCL',
  NLBLX(:) = 1,
  NLBLY(:) = 1,
  XCPHASE = 20.,
  XCPHASE_PBL = 0.,
  XPOND = 1.0,
/ 

&NAM_PGD_SCHEMES
  CSEA = 'NONE',
  CNATURE = 'TSZ0',
/ 

&NAM_COVER
  XUNIF_COVER(1) = 0.,
  XUNIF_COVER(6) = 1.,
/ 

&NAM_SEABATHY
  XUNIF_SEABATHY = 5.,
/ 

&NAM_PREP_SEAFLUX
  XSST_UNIF = 280.,
/ 

&NAM_DATA_SEAFLUX
  LSST_DATA = .FALSE.,
  NTIME_SST = 0,
  NYEAR_SST(1) = 1980,
  NMONTH_SST(1) = 1,
  NDAY_SST(1) = 1,
  XTIME_SST(1) = 0.,
  XUNIF_SST(1) = 280.,
/ 

&NAM_FRAC
  LECOCLIMAP = .TRUE.,
  XUNIF_NATURE = 1.,
/ 

&NAM_DATA_TSZ0
  NTIME = 36,
  XUNIF_DTS(1) = 1.780000,
  XUNIF_DTS(2) = 1.720000,
  XUNIF_DTS(3) = 1.350000,
  XUNIF_DTS(4) = 0.720000,
  XUNIF_DTS(5) = 0.370000,
  XUNIF_DTS(6) = -0.020000,
  XUNIF_DTS(7) = -0.370000,
  XUNIF_DTS(8) = -0.660000,
  XUNIF_DTS(9) = -1.290000,
  XUNIF_DTS(10) = -1.800000,
  XUNIF_DTS(11) = -2.090000,
  XUNIF_DTS(12) = -2.350000,
  XUNIF_DTS(13) = -2.200000,
  XUNIF_DTS(14) = -2.240000,
  XUNIF_DTS(15) = -1.390000,
  XUNIF_DTS(16) = -1.120000,
  XUNIF_DTS(17) = -0.670000,
  XUNIF_DTS(18) = -0.100000,
  XUNIF_DTS(19) = 0.570000,
  XUNIF_DTS(20) = 1.070000,
  XUNIF_DTS(21) = 1.800000,
  XUNIF_DTS(22) = 1.920000,
  XUNIF_DTS(23) = 2.320000,
  XUNIF_DTS(24) = 2.430000,
  XUNIF_DTS(25) = 1.970000,
  XUNIF_DTS(26) = 1.660000,
  XUNIF_DTS(27) = 1.280000,
  XUNIF_DTS(28) = 0.840000,
  XUNIF_DTS(29) = 0.460000,
  XUNIF_DTS(30) = -0.100000,
  XUNIF_DTS(31) = -0.700000,
  XUNIF_DTS(32) = -0.860000,
  XUNIF_DTS(33) = -1.420000,
  XUNIF_DTS(34) = -1.670000,
  XUNIF_DTS(35) = -2.180000,
  XUNIF_DTS(36) = 0.,
/ 

&NAM_DATA_ISBA
  NTIME = 1,
  XUNIF_Z0(1,1) = 0.001000,
  XUNIF_Z0(1,2) = 0.001000,
  XUNIF_Z0(1,3) = 0.001000,
  XUNIF_Z0(1,4) = 0.001000,
  XUNIF_Z0(1,5) = 0.001000,
  XUNIF_Z0(1,6) = 0.001000,
  XUNIF_Z0(1,7) = 0.001000,
  XUNIF_Z0(1,8) = 0.001000,
  XUNIF_Z0(1,9) = 0.001000,
  XUNIF_Z0(1,10) = 0.001000,
  XUNIF_Z0(1,11) = 0.001000,
  XUNIF_Z0(1,12) = 0.001000,
/ 

&NAM_ISBA
  XUNIF_CLAY = 1.,
  XUNIF_SAND = 0.,
  XUNIF_RUNOFFB = 0.5,
  CISBA = '2-L',
  CPHOTO = 'NON',
  NPATCH = 1,
  NGROUND_LAYER = 2,
/ 

&NAM_MOSAIn
  NGROUND_LAYER = 11,
  CCDRAG = 'SURFEX',
/ 

&NAM_DATA_MOSAI
  XUNIF_Z0 = 0.035,
  XUNIF_ALB = 0.164,
  XUNIF_EMIS = 0.99 ,
  XUNIF_Z0_O_Z0H = 1.   ,
  XUNIF_BETA = 0.32 ,
  XUNIF_ITHGRD = 600. ,
/ 

&NAM_PREP_MOSAI
  XTG = 286.4,
  XTS = 286.4,
/ 

&NAM_PREP_SURF_ATM
  NYEAR = 2009,
  NMONTH = 12,
  NDAY = 11,
  XTIME = 0.000000,
/ 

&NAM_PREP_ISBA
  XHUG_SURF = 0.,
  XHUG_ROOT = 0.,
  XHUG_DEEP = 0.,
  XHUGI_SURF = 1.,
  XHUGI_ROOT = 1.,
  XHUGI_DEEP = 1.,
  XTG_SURF = 241.500000,
  XTG_ROOT = 241.500000,
  XTG_DEEP = 241.500000,
  LISBA_CANOPY = .FALSE.,
  NYEAR = 2009,
  NMONTH = 12,
  NDAY = 11,
  XTIME = 0.000000,
/ 

&NAM_DEEPSOIL
  LPHYSDOMC = .FALSE.,
  LDEEPSOIL = .FALSE.,
/ 


RSOU
2009 12 11 0
ZUVTHDMR   
0.00 
65100.00 
271.30 
0.00000000 
91   
           0.0           0.00           0.00
           2.5           1.25           4.50
           7.5           1.25           4.50
          12.5           1.25           4.50
          17.5           1.25           4.50
          22.6           1.25           4.50
          27.7           1.25           4.50
          32.8           1.25           4.50
          38.1           1.25           4.50
          43.4           1.25           4.50
          48.9           1.25           4.50
          54.5           1.25           4.50
          60.4           1.25           4.50
          66.4           1.25           4.50
          72.7           1.25           4.50
          79.4           1.25           4.50
          86.4           1.25           4.50
          93.8           1.25           4.50
         101.7           1.25           4.50
         110.1           1.25           4.50
         119.0           1.25           4.50
         128.6           1.25           4.50
         138.9           1.25           4.50
         150.0           1.25           4.50
         161.9           1.25           4.50
         174.7           1.25           4.50
         188.5           1.25           4.50
         203.3           1.25           4.50
         219.3           1.25           4.50
         236.5           1.25           4.50
         255.0           1.25           4.50
         274.9           1.25           4.50
         296.2           1.25           4.50
         319.1           1.25           4.50
         343.7           1.25           4.50
         370.0           1.25           4.50
         398.1           1.25           4.50
         428.2           1.25           4.50
         460.4           1.25           4.50
         494.6           1.25           4.50
         531.2           1.25           4.50
         570.0           1.25           4.50
         611.4           1.25           4.50
         655.3           1.25           4.50
         701.8           1.27           4.70
         751.2           1.39           4.79
         803.4           1.53           4.89
         858.7           1.67           5.00
         917.0           1.81           5.11
         978.6           1.97           5.23
        1043.5           2.13           5.35
        1111.9           2.31           5.48
        1185.4           2.49           5.62
        1266.9           2.70           5.77
        1357.7           2.93           5.95
        1457.1           3.18           6.13
        1564.6           3.45           6.34
        1679.5           3.74           6.55
        1801.3           4.05           6.78
        1929.6           4.37           7.03
        2063.9           4.71           7.28
        2203.9           5.06           7.54
        2349.5           5.42           7.82
        2500.6           5.80           8.10
        2657.4           6.19           8.40
        2820.1           6.60           8.70
        2989.4           7.07           9.06
        3166.1           8.24          10.04
        3351.1           9.48          11.06
        3546.0          10.77          12.14
        3752.1          12.14          13.29
        3971.3          13.60          14.50
        4205.6          15.16          15.80
        4457.3          16.83          17.20
        4728.8          18.64          18.70
        5022.5          17.91          17.97
        5341.7          16.46          16.60
        5693.3          14.86          15.10
        6086.2          13.08          13.42
        6529.4          11.08          11.54
        7032.8           9.00           9.39
        7609.2           9.00           6.93
        8275.2           9.00           4.08
        9053.6           9.00           0.00
        9976.5           9.00           0.00
       11091.4           9.00           0.00
       12472.6           9.00           0.00
       14225.6           9.00           0.00
       16527.5           9.00           0.00
       19589.0           9.00           0.00
       29065.6           9.00           0.00
91   
           2.5         271.31     0.00000000
           7.5         271.11     0.00000000
          12.5         271.77     0.00000000
          17.5         272.43     0.00000000
          22.6         273.10     0.00000000
          27.7         273.77     0.00000000
          32.8         274.44     0.00000000
          38.1         275.13     0.00000000
          43.4         275.36     0.00000000
          48.9         275.43     0.00000000
          54.5         275.49     0.00000000
          60.4         275.57     0.00000000
          66.4         275.64     0.00000000
          72.7         275.71     0.00000000
          79.4         275.79     0.00000000
          86.4         275.88     0.00000000
          93.8         275.96     0.00000000
         101.7         276.06     0.00000000
         110.1         276.16     0.00000000
         119.0         276.27     0.00000000
         128.6         276.38     0.00000000
         138.9         276.50     0.00000000
         150.0         276.64     0.00000000
         161.9         276.78     0.00000000
         174.7         276.93     0.00000000
         188.5         277.10     0.00000000
         203.3         277.28     0.00000000
         219.3         277.47     0.00000000
         236.5         277.67     0.00000000
         255.0         277.90     0.00000000
         274.9         278.14     0.00000000
         296.2         278.39     0.00000000
         319.1         278.57     0.00000000
         343.7         278.76     0.00000000
         370.0         278.96     0.00000000
         398.1         279.18     0.00000000
         428.2         279.41     0.00000000
         460.4         279.65     0.00000000
         494.6         279.92     0.00000000
         531.2         280.20     0.00000000
         570.0         280.50     0.00000000
         611.4         280.82     0.00000000
         655.3         281.15     0.00000000
         701.8         281.52     0.00000000
         751.2         281.90     0.00000000
         803.4         282.30     0.00000000
         858.7         282.73     0.00000000
         917.0         283.18     0.00000000
         978.6         283.67     0.00000000
        1043.5         284.17     0.00000000
        1111.9         284.71     0.00000000
        1185.4         285.29     0.00000000
        1266.9         285.93     0.00000000
        1357.7         286.65     0.00000000
        1457.1         287.45     0.00000000
        1564.6         288.08     0.00000000
        1679.5         288.66     0.00000000
        1801.3         289.29     0.00000000
        1929.6         289.96     0.00000000
        2063.9         290.66     0.00000000
        2203.9         291.39     0.00000000
        2349.5         292.16     0.00000000
        2500.6         292.97     0.00000000
        2657.4         293.81     0.00000000
        2820.1         294.69     0.00000000
        2989.4         295.62     0.00000000
        3166.1         296.59     0.00000000
        3351.1         297.62     0.00000000
        3546.0         298.64     0.00000000
        3752.1         299.61     0.00000000
        3971.3         300.64     0.00000000
        4205.6         301.76     0.00000000
        4457.3         302.97     0.00000000
        4728.8         304.29     0.00000000
        5022.5         305.74     0.00000000
        5341.7         307.32     0.00000000
        5693.3         311.78     0.00000000
        6086.2         318.87     0.00000000
        6529.4         327.02     0.00000000
        7032.8         336.48     0.00000000
        7609.2         347.59     0.00000000
        8275.2         360.77     0.00000000
        9053.6         376.67     0.00000000
        9976.5         396.23     0.00000000
       11091.4         420.95     0.00000000
       12472.6         453.36     0.00000000
       14225.6         491.95     0.00000000
       16527.5         543.81     0.00000000
       19589.0         621.14     0.00000000
       29065.6        1095.58     0.00000000

ZFRC
37
2009 12 11 0
0.00 
65100.00 
271.30 
0.00000000 
91   
           0.0           0.00           0.00           0.00        0.00000        0.00000   0.0000000000   0.0000000000  0.0  0.0
           2.5           1.25           4.50           0.00        0.00000        0.00000   0.0000000000   0.0000000000  0.0  0.0
           7.5           1.25           4.50           0.00        0.00000        0.00000   0.0000000000   0.0000000000  0.0  0.0
          12.5           1.25           4.50           0.00        0.00000        0.00000   0.0000000000   0.0000000000  0.0  0.0
          17.5           1.25           4.50           0.00        0.00000        0.00000   0.0000000000   0.0000000000  0.0  0.0
          22.6           1.25           4.50           0.00        0.00000        0.00000   0.0000000000   0.0000000000  0.0  0.0
          27.7           1.25           4.50           0.00        0.00000        0.00000   0.0000000000   0.0000000000  0.0  0.0
          32.8           1.25           4.50           0.00        0.00000        0.00000   0.0000000000   0.0000000000  0.0  0.0
          38.1           1.25           4.50           0.00        0.00000        0.00000   0.0000000000   0.0000000000  0.0  0.0
          43.4           1.25           4.50           0.00        0.00000        0.00000   0.0000000000   0.0000000000  0.0  0.0
          48.9           1.25           4.50           0.00        0.00000        0.00000   0.0000000000   0.0000000000  0.0  0.0
          54.5           1.25           4.50           0.00        0.00000        0.00000   0.0000000000   0.0000000000  0.0  0.0
          60.4           1.25           4.50           0.00        0.00000        0.00000   0.0000000000   0.0000000000  0.0  0.0
          66.4           1.25           4.50           0.00        0.00000        0.00000   0.0000000000   0.0000000000  0.0  0.0
          72.7           1.25           4.50           0.00        0.00000        0.00000   0.0000000000   0.0000000000  0.0  0.0
          79.4           1.25           4.50           0.00        0.00000        0.00000   0.0000000000   0.0000000000  0.0  0.0
          86.4           1.25           4.50           0.00        0.00000        0.00000   0.0000000000   0.0000000000  0.0  0.0
          93.8           1.25           4.50           0.00        0.00000        0.00000   0.0000000000   0.0000000000  0.0  0.0
         101.7           1.25           4.50           0.00        0.00000        0.00000   0.0000000000   0.0000000000  0.0  0.0
         110.1           1.25           4.50           0.00        0.00000        0.00000   0.0000000000   0.0000000000  0.0  0.0
         119.0           1.25           4.50           0.00        0.00000        0.00000   0.0000000000   0.0000000000  0.0  0.0
         128.6           1.25           4.50           0.00        0.00000        0.00000   0.0000000000   0.0000000000  0.0  0.0
         138.9           1.25           4.50           0.00        0.00000        0.00000   0.0000000000   0.0000000000  0.0  0.0
         150.0           1.25           4.50           0.00        0.00000        0.00000   0.0000000000   0.0000000000  0.0  0.0
         161.9           1.25           4.50           0.00        0.00000        0.00000   0.0000000000   0.0000000000  0.0  0.0
         174.7           1.25           4.50           0.00        0.00000        0.00000   0.0000000000   0.0000000000  0.0  0.0
         188.5           1.25           4.50           0.00        0.00000        0.00000   0.0000000000   0.0000000000  0.0  0.0
         203.3           1.25           4.50           0.00        0.00000        0.00000   0.0000000000   0.0000000000  0.0  0.0
         219.3           1.25           4.50           0.00        0.00000        0.00000   0.0000000000   0.0000000000  0.0  0.0
         236.5           1.25           4.50           0.00        0.00000        0.00000   0.0000000000   0.0000000000  0.0  0.0
         255.0           1.25           4.50           0.00        0.00000        0.00000   0.0000000000   0.0000000000  0.0  0.0
         274.9           1.25           4.50           0.00        0.00000        0.00000   0.0000000000   0.0000000000  0.0  0.0
         296.2           1.25           4.50           0.00        0.00000        0.00000   0.0000000000   0.0000000000  0.0  0.0
         319.1           1.25           4.50           0.00        0.00000        0.00000   0.0000000000   0.0000000000  0.0  0.0
         343.7           1.25           4.50           0.00        0.00000        0.00000   0.0000000000   0.0000000000  0.0  0.0
         370.0           1.25           4.50           0.00        0.00000        0.00000   0.0000000000   0.0000000000  0.0  0.0
         398.1           1.25           4.50           0.00        0.00000        0.00000   0.0000000000   0.0000000000  0.0  0.0
         428.2           1.25           4.50           0.00        0.00000        0.00000   0.0000000000   0.0000000000  0.0  0.0
         460.4           1.25           4.50           0.00        0.00000        0.00000   0.0000000000   0.0000000000  0.0  0.0
         494.6           1.25           4.50           0.00        0.00000        0.00000   0.0000000000   0.0000000000  0.0  0.0
         531.2           1.25           4.50           0.00        0.00000        0.00000   0.0000000000   0.0000000000  0.0  0.0
         570.0           1.25           4.50           0.00        0.00000        0.00000   0.0000000000   0.0000000000  0.0  0.0
         611.4           1.25           4.50           0.00        0.00000        0.00000   0.0000000000   0.0000000000  0.0  0.0
         655.3           1.25           4.50           0.00        0.00000        0.00000   0.0000000000   0.0000000000  0.0  0.0
         701.8           1.27           4.70           0.00        0.00000        0.00000   0.0000000000   0.0000000000  0.0  0.0
         751.2           1.39           4.79           0.00        0.00000        0.00000   0.0000000000   0.0000000000  0.0  0.0
         803.4           1.53           4.89           0.00        0.00000        0.00000   0.0000000000   0.0000000000  0.0  0.0
         858.7           1.67           5.00           0.00        0.00000        0.00000   0.0000000000   0.0000000000  0.0  0.0
         917.0           1.81           5.11           0.00        0.00000        0.00000   0.0000000000   0.0000000000  0.0  0.0
         978.6           1.97           5.23           0.00        0.00000        0.00000   0.0000000000   0.0000000000  0.0  0.0
        1043.5           2.13           5.35           0.00        0.00000        0.00000   0.0000000000   0.0000000000  0.0  0.0
        1111.9           2.31           5.48           0.00        0.00000        0.00000   0.0000000000   0.0000000000  0.0  0.0
        1185.4           2.49           5.62           0.00        0.00000        0.00000   0.0000000000   0.0000000000  0.0  0.0
        1266.9           2.70           5.77           0.00        0.00000        0.00000   0.0000000000   0.0000000000  0.0  0.0
        1357.7           2.93           5.95           0.00        0.00000        0.00000   0.0000000000   0.0000000000  0.0  0.0
        1457.1           3.18           6.13           0.00        0.00000        0.00000   0.0000000000   0.0000000000  0.0  0.0
        1564.6           3.45           6.34           0.00        0.00000        0.00000   0.0000000000   0.0000000000  0.0  0.0
        1679.5           3.74           6.55           0.00        0.00000        0.00000   0.0000000000   0.0000000000  0.0  0.0
        1801.3           4.05           6.78           0.00        0.00000        0.00000   0.0000000000   0.0000000000  0.0  0.0
        1929.6           4.37           7.03           0.00        0.00000        0.00000   0.0000000000   0.0000000000  0.0  0.0
        2063.9           4.71           7.28           0.00        0.00000        0.00000   0.0000000000   0.0000000000  0.0  0.0
        2203.9           5.06           7.54           0.00        0.00000        0.00000   0.0000000000   0.0000000000  0.0  0.0
        2349.5           5.42           7.82           0.00        0.00000        0.00000   0.0000000000   0.0000000000  0.0  0.0
        2500.6           5.80           8.10           0.00        0.00000        0.00000   0.0000000000   0.0000000000  0.0  0.0
        2657.4           6.19           8.40           0.00        0.00000        0.00000   0.0000000000   0.0000000000  0.0  0.0
        2820.1           6.60           8.70           0.00        0.00000        0.00000   0.0000000000   0.0000000000  0.0  0.0
        2989.4           7.07           9.06           0.00        0.00000        0.00000   0.0000000000   0.0000000000  0.0  0.0
        3166.1           8.24          10.04           0.00        0.00000        0.00000   0.0000000000   0.0000000000  0.0  0.0
        3351.1           9.48          11.06           0.00        0.00000        0.00000   0.0000000000   0.0000000000  0.0  0.0
        3546.0          10.77          12.14           0.00        0.00000        0.00000   0.0000000000   0.0000000000  0.0  0.0
        3752.1          12.14          13.29           0.00        0.00000        0.00000   0.0000000000   0.0000000000  0.0  0.0
        3971.3          13.60          14.50           0.00        0.00000        0.00000   0.0000000000   0.0000000000  0.0  0.0
        4205.6          15.16          15.80           0.00        0.00000        0.00000   0.0000000000   0.0000000000  0.0  0.0
        4457.3          16.83          17.20           0.00        0.00000        0.00000   0.0000000000   0.0000000000  0.0  0.0
        4728.8          18.64          18.70           0.00        0.00000        0.00000   0.0000000000   0.0000000000  0.0  0.0
        5022.5          17.91          17.97           0.00        0.00000        0.00000   0.0000000000   0.0000000000  0.0  0.0
        5341.7          16.46          16.60           0.00        0.00000        0.00000   0.0000000000   0.0000000000  0.0  0.0
        5693.3          14.86          15.10           0.00        0.00000        0.00000   0.0000000000   0.0000000000  0.0  0.0
        6086.2          13.08          13.42           0.00        0.00000        0.00000   0.0000000000   0.0000000000  0.0  0.0
        6529.4          11.08          11.54           0.00        0.00000        0.00000   0.0000000000   0.0000000000  0.0  0.0
        7032.8           9.00           9.39           0.00        0.00000        0.00000   0.0000000000   0.0000000000  0.0  0.0
        7609.2           9.00           6.93           0.00        0.00000        0.00000   0.0000000000   0.0000000000  0.0  0.0
        8275.2           9.00           4.08           0.00        0.00000        0.00000   0.0000000000   0.0000000000  0.0  0.0
        9053.6           9.00           0.00           0.00        0.00000        0.00000   0.0000000000   0.0000000000  0.0  0.0
        9976.5           9.00           0.00           0.00        0.00000        0.00000   0.0000000000   0.0000000000  0.0  0.0
       11091.4           9.00           0.00           0.00        0.00000        0.00000   0.0000000000   0.0000000000  0.0  0.0
       12472.6           9.00           0.00           0.00        0.00000        0.00000   0.0000000000   0.0000000000  0.0  0.0
       14225.6           9.00           0.00           0.00        0.00000        0.00000   0.0000000000   0.0000000000  0.0  0.0
       16527.5           9.00           0.00           0.00        0.00000        0.00000   0.0000000000   0.0000000000  0.0  0.0
       19589.0           9.00           0.00           0.00        0.00000        0.00000   0.0000000000   0.0000000000  0.0  0.0
       29065.6           9.00           0.00           0.00        0.00000        0.00000   0.0000000000   0.0000000000  0.0  0.0
2009 12 11 3600
0.00 
65100.00 
271.30 
0.00000000 
91   
           0.0           0.00           0.00           0.00        0.00000        0.00000   0.0000000000   0.0000000000  0.0  0.0
           2.5           1.25           4.50           0.00        0.00000        0.00000   0.0000000000   0.0000000000  0.0  0.0
           7.5           1.25           4.50           0.00        0.00000        0.00000   0.0000000000   0.0000000000  0.0  0.0
          12.5           1.25           4.50           0.00        0.00000        0.00000   0.0000000000   0.0000000000  0.0  0.0
          17.5           1.25           4.50           0.00        0.00000        0.00000   0.0000000000   0.0000000000  0.0  0.0
          22.6           1.25           4.50           0.00        0.00000        0.00000   0.0000000000   0.0000000000  0.0  0.0
          27.7           1.25           4.50           0.00        0.00000        0.00000   0.0000000000   0.0000000000  0.0  0.0
          32.8           1.25           4.50           0.00        0.00000        0.00000   0.0000000000   0.0000000000  0.0  0.0
          38.1           1.25           4.50           0.00        0.00000        0.00000   0.0000000000   0.0000000000  0.0  0.0
          43.4           1.25           4.50           0.00        0.00000        0.00000   0.0000000000   0.0000000000  0.0  0.0
          48.9           1.25           4.50           0.00        0.00000        0.00000   0.0000000000   0.0000000000  0.0  0.0
          54.5           1.25           4.50           0.00        0.00000        0.00000   0.0000000000   0.0000000000  0.0  0.0
          60.4           1.25           4.50           0.00        0.00000        0.00000   0.0000000000   0.0000000000  0.0  0.0
          66.4           1.25           4.50           0.00        0.00000        0.00000   0.0000000000   0.0000000000  0.0  0.0
          72.7           1.25           4.50           0.00        0.00000        0.00000   0.0000000000   0.0000000000  0.0  0.0
          79.4           1.25           4.50           0.00        0.00000        0.00000   0.0000000000   0.0000000000  0.0  0.0
          86.4           1.25           4.50           0.00        0.00000        0.00000   0.0000000000   0.0000000000  0.0  0.0
          93.8           1.25           4.50           0.00        0.00000        0.00000   0.0000000000   0.0000000000  0.0  0.0
         101.7           1.25           4.50           0.00        0.00000        0.00000   0.0000000000   0.0000000000  0.0  0.0
         110.1           1.25           4.50           0.00        0.00000        0.00000   0.0000000000   0.0000000000  0.0  0.0
         119.0           1.25           4.50           0.00        0.00000        0.00000   0.0000000000   0.0000000000  0.0  0.0
         128.6           1.25           4.50           0.00        0.00000        0.00000   0.0000000000   0.0000000000  0.0  0.0
         138.9           1.25           4.50           0.00        0.00000        0.00000   0.0000000000   0.0000000000  0.0  0.0
         150.0           1.25           4.50           0.00        0.00000        0.00000   0.0000000000   0.0000000000  0.0  0.0
         161.9           1.25           4.50           0.00        0.00000        0.00000   0.0000000000   0.0000000000  0.0  0.0
         174.7           1.25           4.50           0.00        0.00000        0.00000   0.0000000000   0.0000000000  0.0  0.0
         188.5           1.25           4.50           0.00        0.00000        0.00000   0.0000000000   0.0000000000  0.0  0.0
         203.3           1.25           4.50           0.00        0.00000        0.00000   0.0000000000   0.0000000000  0.0  0.0
         219.3           1.25           4.50           0.00        0.00000        0.00000   0.0000000000   0.0000000000  0.0  0.0
         236.5           1.25           4.50           0.00        0.00000        0.00000   0.0000000000   0.0000000000  0.0  0.0
         255.0           1.25           4.50           0.00        0.00000        0.00000   0.0000000000   0.0000000000  0.0  0.0
         274.9           1.25           4.50           0.00        0.00000        0.00000   0.0000000000   0.0000000000  0.0  0.0
         296.2           1.25           4.50           0.00        0.00000        0.00000   0.0000000000   0.0000000000  0.0  0.0
         319.1           1.25           4.50           0.00        0.00000        0.00000   0.0000000000   0.0000000000  0.0  0.0
         343.7           1.25           4.50           0.00        0.00000        0.00000   0.0000000000   0.0000000000  0.0  0.0
         370.0           1.25           4.50           0.00        0.00000        0.00000   0.0000000000   0.0000000000  0.0  0.0
         398.1           1.25           4.50           0.00        0.00000        0.00000   0.0000000000   0.0000000000  0.0  0.0
         428.2           1.25           4.50           0.00        0.00000        0.00000   0.0000000000   0.0000000000  0.0  0.0
         460.4           1.25           4.50           0.00        0.00000        0.00000   0.0000000000   0.0000000000  0.0  0.0