&NAM_CONFIO
  LCDF4 = .TRUE.,
  LLFIOUT = .FALSE.,
  LLFIREAD = .FALSE.,
/ 

&NAM_CONFZ
  NZ_VERB = 0,
  NZ_PROC = 0,
  NB_PROCIO_R = 1,
  NB_PROCIO_W = 1,
  MPI_BUFFER_SIZE = 40,
  LMNH_MPI_BSEND = .TRUE.,
  LMNH_MPI_ALLTOALLV_REMAP = .FALSE.,
  NZ_SPLITTING = 10,
/ 

&NAM_LUNITn
  CINIFILE = 'init_EUROC',
  CINIFILEPGD = 'init_EUROC_PGD',
/ 

&NAM_DIMn_PRE
  NIMAX = 1,
  NJMAX = 1,
/ 

&NAM_DYNn_PRE
  CPRESOPT = 'CRESI',
  NITR = 4,
  XRELAX = 1.,
  LRES = .FALSE.,
  XRES = 1.E-07,
/ 

&NAM_GRID_PRE
  XLON0 = -97.48,
  XLAT0 = 36.61,
  XBETA = 0.,
  XRPK = 1.,
  XLONORI = 350.,
  XLATORI = 37.,
/ 

&NAM_VER_GRID
  LTHINSHELL = .TRUE.,
  NKMAX = 130,
  YZGRID_TYPE = 'MANUAL',
  ZDZGRD = 25,
  ZDZTOP = 25,
  ZZMAX_STRGRD = 0.,
  ZSTRGRD = 0.,
  ZSTRTOP = 0.,
  LSLEVE = .FALSE.,
  XLEN1 = 7500.,
  XLEN2 = 2500.,
/ 

&NAM_CONF_PRE
  LCARTESIAN = .TRUE.,
  LPACK = .TRUE.,
  CEQNSYS = 'DUR',
  NVERB = 10,
  CIDEAL = 'RSOU',
  CZS = 'FLAT',
  LBOUSS = .FALSE.,
  LPERTURB = .FALSE.,
  LFORCING = .TRUE.,
  LSHIFT = .FALSE.,
  L2D_ADV_FRC = .FALSE.,
  L2D_REL_FRC = .FALSE.,
  NHALO = 1,
  JPHEXT = 1,
/ 

&NAM_PERT_PRE
  CPERT_KIND = 'WH',
  XAMPLITH = 1.5,
  XAMPLIRV = 0.0,
  XAMPLIUV = 1.0834,
  XAMPLIWH = 0.1,
  NKWH = 2,
  LSET_RHU = .TRUE.,
  XCENTERZ = 2000.,
  XRADX = 10000.,
  XRADY = 10000.,
  XRADZ = 2000.,
  LWH_LBXU = .FALSE.,
  LWH_LBYV = .FALSE.,
/ 

&NAM_GRIDH_PRE
  XDELTAX = 50000,
  XDELTAY = 50000,
  XHMAX = 0.,
  NEXPX = 3,
  NEXPY = 1,
  XAX = 10000.,
  XAY = 10000.,
  NIZS = 5,
  NJZS = 5,
/ 

&NAM_GRn_PRE
  CSURF = 'EXTE',
/ 

&NAM_CONFn
  LUSERV = .TRUE.,
  LUSERC = .FALSE.,
  LUSERR = .FALSE.,
  LUSERI = .FALSE.,
  LUSERS = .FALSE.,
  LUSERG = .FALSE.,
  LUSERH = .FALSE.,
  LUSECI = .FALSE.,
/ 

&NAM_LBCn
  CLBCX(1) = 'CYCL',
  CLBCX(2) = 'CYCL',
  CLBCY(1) = 'CYCL',
  CLBCY(2) = 'CYCL',
  NLBLX(:) = 1,
  NLBLY(:) = 1,
  XCPHASE = 20.,
  XCPHASE_PBL = 0.,
  XPOND = 1.0,
/ 

&NAM_PGD_SCHEMES
  CSEA = 'NONE',
  CNATURE = 'TSZ0',
/ 

&NAM_COVER
  XUNIF_COVER(1) = 0.,
  XUNIF_COVER(6) = 1.,
/ 

&NAM_SEABATHY
  XUNIF_SEABATHY = 5.,
/ 

&NAM_PREP_SEAFLUX
  XSST_UNIF = 280.,
/ 

&NAM_DATA_SEAFLUX
  LSST_DATA = .FALSE.,
  NTIME_SST = 0,
  NYEAR_SST(1) = 1980,
  NMONTH_SST(1) = 1,
  NDAY_SST(1) = 1,
  XTIME_SST(1) = 0.,
  XUNIF_SST(1) = 280.,
/ 

&NAM_FRAC
  LECOCLIMAP = .TRUE.,
  XUNIF_NATURE = 1.,
/ 

&NAM_DATA_TSZ0
  NTIME = 36,
  XUNIF_DTS(1) = 0.610000,
  XUNIF_DTS(2) = 0.610000,
  XUNIF_DTS(3) = 0.600000,
  XUNIF_DTS(4) = 0.610000,
  XUNIF_DTS(5) = 0.610000,
  XUNIF_DTS(6) = 0.610000,
  XUNIF_DTS(7) = 1.170000,
  XUNIF_DTS(8) = 1.170000,
  XUNIF_DTS(9) = 1.170000,
  XUNIF_DTS(10) = 1.170000,
  XUNIF_DTS(11) = 1.170000,
  XUNIF_DTS(12) = 1.170000,
  XUNIF_DTS(13) = 0.050000,
  XUNIF_DTS(14) = 0.050000,
  XUNIF_DTS(15) = 0.040000,
  XUNIF_DTS(16) = 0.050000,
  XUNIF_DTS(17) = 0.050000,
  XUNIF_DTS(18) = 0.040000,
  XUNIF_DTS(19) = -0.790000,
  XUNIF_DTS(20) = -0.800000,
  XUNIF_DTS(21) = -0.800000,
  XUNIF_DTS(22) = -0.790000,
  XUNIF_DTS(23) = -0.800000,
  XUNIF_DTS(24) = -0.800000,
  XUNIF_DTS(25) = -1.300000,
  XUNIF_DTS(26) = -1.300000,
  XUNIF_DTS(27) = -1.300000,
  XUNIF_DTS(28) = -1.300000,
  XUNIF_DTS(29) = -1.310000,
  XUNIF_DTS(30) = -1.300000,
  XUNIF_DTS(31) = -0.300000,
  XUNIF_DTS(32) = -0.310000,
  XUNIF_DTS(33) = -0.310000,
  XUNIF_DTS(34) = -0.300000,
  XUNIF_DTS(35) = -0.310000,
  XUNIF_DTS(36) = 0.,
/ 

&NAM_DATA_ISBA
  NTIME = 1,
  XUNIF_Z0(1,1) = 0.150000,
  XUNIF_Z0(1,2) = 0.150000,
  XUNIF_Z0(1,3) = 0.150000,
  XUNIF_Z0(1,4) = 0.150000,
  XUNIF_Z0(1,5) = 0.150000,
  XUNIF_Z0(1,6) = 0.150000,
  XUNIF_Z0(1,7) = 0.150000,
  XUNIF_Z0(1,8) = 0.150000,
  XUNIF_Z0(1,9) = 0.150000,
  XUNIF_Z0(1,10) = 0.150000,
  XUNIF_Z0(1,11) = 0.150000,
  XUNIF_Z0(1,12) = 0.150000,
/ 

&NAM_ISBA
  XUNIF_CLAY = 1.,
  XUNIF_SAND = 0.,
  XUNIF_RUNOFFB = 0.5,
  CISBA = '2-L',
  CPHOTO = 'NON',
  NPATCH = 1,
  NGROUND_LAYER = 2,
/ 

&NAM_PREP_SURF_ATM
  NYEAR = 1997,
  NMONTH = 06,
  NDAY = 27,
  XTIME = 41400.000000,
/ 

&NAM_PREP_ISBA
  XHUG_SURF = 0.,
  XHUG_ROOT = 0.,
  XHUG_DEEP = 0.,
  XHUGI_SURF = 1.,
  XHUGI_ROOT = 1.,
  XHUGI_DEEP = 1.,
  XTG_SURF = 296.280000,
  XTG_ROOT = 296.280000,
  XTG_DEEP = 296.280000,
  LISBA_CANOPY = .FALSE.,
  NYEAR = 1997,
  NMONTH = 06,
  NDAY = 27,
  XTIME = 41400.000000,
/ 

&NAM_DEEPSOIL
  LPHYSDOMC = .FALSE.,
  LDEEPSOIL = .FALSE.,
/ 

ZHAT
0
20
42
66
92
120
150
182
217
256
298
342
390
440
490
540
590
640
690
740
790
840
890
940
990
1040
1090
1140
1190
1240
1290
1340
1390
1440
1490
1540
1590
1640
1690
1740
1790
1840
1890
1940
1990
2040
2090
2140
2190
2240
2290
2340
2390
2440
2490
2545
2605
2671
2743
2822
2910
3012
3134
3280
3455
3665
3900
4150
4400
4650
4900
5150
5400
5650
5900
6150
6400
6650
6900
7150
7400
7650
7900
8150
8400
8650
8900
9150
9400
9650
9900
10150
10400
10650
10900
11150
11400
11650
11900
12150
12400
12650
12900
13150
13400
13650
13900
14150
14400
14650
14900
15150
15400
15650
15900
16150
16400
16650
16900
17150
17400
17650
17900
18150
18400
18650
18900
19150
19400
19650
19900

RSOU
1997 06 27 41400
ZUVTHDMR   
0.00 
97285.89 
298.63 
0.01611070 
20   
          71.0           1.91           3.30
         535.0           3.70           4.84
        1020.8           4.99           4.44
        1530.2           5.38           3.05
        2064.9           5.08           1.70
        2628.0           4.61           0.73
        3223.0           4.51           0.23
        3854.3           4.53          -0.11
        4528.3           4.39          -0.19
        5253.6           4.09          -0.33
        6039.4           4.01          -0.46
        6896.6           4.69          -0.68
        7840.3           6.61          -0.85
        8891.3          10.22          -1.45
       10082.2          14.31          -2.32
       11470.7          16.62          -2.09
       13162.3          14.03          -1.26
       15402.2           6.59          -0.04
       16260.9           6.59          -0.04
       30405.4           6.59          -0.04
21   
          71.0         299.50     0.01445000
         535.0         302.00     0.01322000
        1020.8         304.30     0.01175000
        1530.2         306.10     0.00981500
        2064.9         308.10     0.00736800
        2628.0         310.00     0.00519500
        3223.0         311.90     0.00347800
        3854.3         314.00     0.00218700
        4528.3         317.00     0.00129700
        5253.6         320.50     0.00091920
        6039.4         323.90     0.00080770
        6896.6         327.10     0.00055920
        7840.3         330.30     0.00033270
        8891.3         333.40     0.00017710
       10082.2         337.70     0.00009020
       11470.7         345.40     0.00003251
       13162.3         358.10     0.00000918
       15402.2         389.40     0.00000435
       16260.9         405.20     0.00000000
       30405.4         782.20     0.00000000

ZFRC
33
1997 06 27 41400
0.00 
97285.89 
298.63 
0.01611070 
20   
       30405.4           1.91           3.30           0.00        0.00000        0.00000   0.0000000000   0.0000031630  0.0  0.0
       16260.9           2.56           3.33           0.00        0.00000        0.00000   0.0000000000   0.0000021120  0.0  0.0
       15402.2           2.80           3.59           0.00        0.00000        0.00000   0.0000000000   0.0000010720  0.0  0.0
       13162.3           2.18           3.96           0.00        0.00000        0.00000   0.0000000000  -0.0000000609  0.0  0.0
       11470.7           2.18           4.24           0.00        0.00000        0.00000   0.0000000000  -0.0000013780  0.0  0.0
       10082.2           2.46           3.96           0.00        0.00000        0.00000   0.0000000000  -0.0000014750  0.0  0.0
        8891.3           1.96           3.71           0.00        0.00000        0.00000   0.0000000000   0.0000024350  0.0  0.0
        7840.3           1.93           3.51           0.00        0.00000        0.00000   0.0000000000   0.0000027990  0.0  0.0
        6896.6           1.91           3.30           0.00        0.00000        0.00000   0.0000000000   0.0000031630  0.0  0.0
        6039.4           2.56           3.33           0.00        0.00000        0.00000   0.0000000000   0.0000021120  0.0  0.0
        5253.6           2.80           3.59           0.00        0.00000        0.00000   0.0000000000   0.0000010720  0.0  0.0
        4528.3           2.18           3.96           0.00        0.00000        0.00000   0.0000000000  -0.0000000609  0.0  0.0
        3854.3           2.18           4.24           0.00        0.00000        0.00000   0.0000000000  -0.0000013780  0.0  0.0
        3223.0           2.46           3.96           0.00        0.00000        0.00000   0.0000000000  -0.0000014750  0.0  0.0
        2628.0           1.96           3.71           0.00        0.00000        0.00000   0.0000000000   0.0000024350  0.0  0.0
        2064.9           1.93           3.51           0.00        0.00000        0.00000   0.0000000000   0.0000027990  0.0  0.0
        1530.2           1.91           3.30           0.00        0.00000        0.00000   0.0000000000   0.0000031630  0.0  0.0
        1020.8           2.56           3.33           0.00        0.00000        0.00000   0.0000000000   0.0000021120  0.0  0.0
         535.0           2.80           3.59           0.00        0.00000        0.00000   0.0000000000   0.0000010720  0.0  0.0
          71.0           2.18           3.96           0.00        0.00000        0.00000   0.0000000000  -0.0000000609  0.0  0.0
1997 06 27 52200
0.00 
97285.89 
298.63 
0.01611070 
20   
       30405.4           2.18           4.24           0.00        0.00000        0.00000   0.0000000000  -0.0000013780  0.0  0.0
       16260.9           2.46           3.96           0.00        0.00000        0.00000   0.0000000000  -0.0000014750  0.0  0.0
       15402.2           1.96           3.71           0.00        0.00000        0.00000   0.0000000000   0.0000024350  0.0  0.0
       13162.3           1.93           3.51           0.00        0.00000        0.00000   0.0000000000   0.0000027990  0.0  0.0
       11470.7           1.91           3.30           0.00        0.00000        0.00000   0.0000000000   0.0000031630  0.0  0.0
       10082.2           2.56           3.33           0.00        0.00000        0.00000   0.0000000000   0.0000021120  0.0  0.0
        8891.3           2.80           3.59           0.00        0.00000        0.00000   0.0000000000   0.0000010720  0.0  0.0
        7840.3           2.18           3.96           0.00        0.00000        0.00000   0.0000000000  -0.0000000609  0.0  0.0
        6896.6           2.18           4.24           0.00        0.00000        0.00000   0.0000000000  -0.0000013780  0.0  0.0
        6039.4           2.46           3.96           0.00        0.00000        0.00000   0.0000000000  -0.0000014750  0.0  0.0
        5253.6           1.96           3.71           0.00        0.00000        0.00000   0.0000000000   0.0000024350  0.0  0.0
        4528.3           1.93           3.51           0.00        0.00000        0.00000   0.0000000000   0.0000027990  0.0  0.0
        3854.3           1.91           3.30           0.00        0.00000        0.00000   0.0000000000   0.0000031630  0.0  0.0
        3223.0           3.70           4.84           0.00        0.00000        0.00000   0.0000000000   0.0000030190  0.0  0.0
        2628.0           4.07           4.46           0.00        0.00000        0.00000   0.0000000000   0.0000035260  0.0  0.0
        2064.9           3.62           4.86           0.00        0.00000        0.00000   0.0000000000   0.0000013710  0.0  0.0
        1530.2           2.64           5.70           0.00        0.00000        0.00000   0.0000000000  -0.0000000615  0.0  0.0
        1020.8           2.84           6.59           0.00        0.00000        0.00000   0.0000000000  -0.0000017640  0.0  0.0
         535.0           3.72           7.11           0.00        0.00000        0.00000   0.0000000000  -0.0000007484  0.0  0.0
          71.0           3.51           6.53           0.00        0.00000        0.00000   0.0000000000   0.0000028270  0.0  0.0
1997 06 27 63000
0.00 
97285.89 
298.63 
0.01611070 
20   
       30405.4           3.61           5.69           0.00        0.00000        0.00000   0.0000000000   0.0000029230  0.0  0.0
       16260.9           3.70           4.84           0.00        0.00000        0.00000   0.0000000000   0.0000030190  0.0  0.0
       15402.2           4.07           4.46           0.00        0.00000        0.00000   0.0000000000   0.0000035260  0.0  0.0
       13162.3           3.62           4.86           0.00        0.00000        0.00000   0.0000000000   0.0000013710  0.0  0.0
       11470.7           2.64           5.70           0.00        0.00000        0.00000   0.0000000000  -0.0000000615  0.0  0.0
       10082.2           2.84           6.59           0.00        0.00000        0.00000   0.0000000000  -0.0000017640  0.0  0.0
        8891.3           3.72           7.11           0.00        0.00000        0.00000   0.0000000000  -0.0000007484  0.0  0.0
        7840.3           3.51           6.53           0.00        0.00000        0.00000   0.0000000000   0.0000028270  0.0  0.0
        6896.6           3.61           5.69           0.00        0.00000        0.00000   0.0000000000   0.0000029230  0.0  0.0
        6039.4           3.70           4.84           0.00        0.00000        0.00000   0.0000000000   0.0000030190  0.0  0.0
        5253.6           4.07           4.46           0.00        0.00000        0.00000   0.0000000000   0.0000035260  0.0  0.0
        4528.3           3.62           4.86           0.00        0.00000        0.00000   0.0000000000   0.0000013710  0.0  0.0
        3854.3           2.64           5.70           0.00        0.00000        0.00000   0.0000000000  -0.0000000615  0.0  0.0
        3223.0           2.84           6.59           0.00        0.00000        0.00000   0.0000000000  -0.0000017640  0.0  0.0
        2628.0           3.72           7.11           0.00        0.00000        0.00000   0.0000000000  -0.0000007484  0.0  0.0
        2064.9           3.51           6.53           0.00        0.00000        0.00000   0.0000000000   0.0000028270  0.0  0.0
        1530.2           3.61           5.69           0.00        0.00000        0.00000   0.0000000000   0.0000029230  0.0  0.0
        1020.8           3.70           4.84           0.00        0.00000        0.00000   0.0000000000   0.0000030190  0.0  0.0
         535.0           4.07           4.46           0.00        0.00000        0.00000   0.0000000000   0.0000035260  0.0  0.0
          71.0           3.62           4.86           0.00        0.00000        0.00000   0.0000000000   0.0000013710  0.0  0.0
1997 06 27 73800
0.00 
97285.89 
298.63 
0.01611070 
20   
       30405.4           2.64           5.70           0.00        0.00000        0.00000   0.0000000000  -0.0000000615  0.0  0.0
       16260.9           2.84           6.59           0.00        0.00000        0.00000   0.0000000000  -0.0000017640  0.0  0.0
       15402.2           3.72           7.11           0.00        0.00000        0.00000   0.0000000000  -0.0000007484  0.0  0.0
       13162.3           3.51           6.53           0.00        0.00000        0.00000   0.0000000000   0.0000028270  0.0  0.0
       11470.7           3.61           5.69           0.00        0.00000        0.00000   0.0000000000   0.0000029230  0.0  0.0
       10082.2           3.70           4.84           0.00        0.00000        0.00000   0.0000000000   0.0000030190  0.0  0.0
        8891.3           4.99           4.44           0.00        0.00000        0.00000   0.0000000000  -0.0000010390  0.0  0.0
        7840.3           4.82           4.10           0.00        0.00000        0.00000   0.0000000000   0.0000042400  0.0  0.0
        6896.6           3.78           4.97           0.00        0.00000        0.00000   0.0000000000   0.0000025360  0.0  0.0
        6039.4           2.81           6.00           0.00        0.00000        0.00000   0.0000000000   0.0000007746  0.0  0.0
        5253.6           3.16           7.01           0.00        0.00000        0.00000   0.0000000000  -0.0000012270  0.0  0.0
        4528.3           4.18           7.41           0.00        0.00000        0.00000   0.0000000000   0.0000015290  0.0  0.0
        3854.3           4.47           6.63           0.00        0.00000        0.00000   0.0000000000   0.0000007041  0.0  0.0
        3223.0           4.73           5.53           0.00        0.00000        0.00000   0.0000000000  -0.0000001676  0.0  0.0
        2628.0           4.99           4.44           0.00        0.00000        0.00000   0.0000000000  -0.0000010390  0.0  0.0
        2064.9           4.82           4.10           0.00        0.00000        0.00000   0.0000000000   0.0000042400  0.0  0.0
        1530.2           3.78           4.97           0.00        0.00000        0.00000   0.0000000000   0.0000025360  0.0  0.0
        1020.8           2.81           6.00           0.00        0.00000        0.00000   0.0000000000   0.0000007746  0.0  0.0
         535.0           3.16           7.01           0.00        0.00000        0.00000   0.0000000000  -0.0000012270  0.0  0.0
          71.0           4.18           7.41           0.00        0.00000        0.00000   0.0000000000   0.0000015290  0.0  0.0
1997 06 27 84600
0.00 
97285.89 
298.63 
0.01611070 
20   
       30405.4           4.47           6.63           0.00        0.00000        0.00000   0.0000000000   0.0000007041  0.0  0.0
       16260.9           4.73           5.53           0.00        0.00000        0.00000   0.0000000000  -0.0000001676  0.0  0.0
       15402.2           4.99           4.44           0.00        0.00000        0.00000   0.0000000000  -0.0000010390  0.0  0.0
       13162.3           4.82           4.10           0.00        0.00000        0.00000   0.0000000000   0.0000042400  0.0  0.0
       11470.7           3.78           4.97           0.00        0.00000        0.00000   0.0000000000   0.0000025360  0.0  0.0
       10082.2           2.81           6.00           0.00        0.00000        0.00000   0.0000000000   0.0000007746  0.0  0.0
        8891.3           3.16           7.01           0.00        0.00000        0.00000   0.0000000000  -0.0000012270  0.0  0.0
        7840.3           4.18           7.41           0.00        0.00000        0.00000   0.0000000000   0.0000015290  0.0  0.0
        6896.6           4.47           6.63           0.00        0.00000        0.00000   0.0000000000   0.0000007041  0.0  0.0
        6039.4           4.73           5.53           0.00        0.00000        0.00000   0.0000000000  -0.0000001676  0.0  0.0
        5253.6           4.99           4.44           0.00        0.00000        0.00000   0.0000000000  -0.0000010390  0.0  0.0
        4528.3           4.82           4.10           0.00        0.00000        0.00000   0.0000000000   0.0000042400  0.0  0.0
        3854.3           3.78           4.97           0.00        0.00000        0.00000   0.0000000000   0.0000025360  0.0  0.0
        3223.0           2.81           6.00           0.00        0.00000        0.00000   0.0000000000   0.0000007746  0.0  0.0
        2628.0           3.16           7.01           0.00        0.00000        0.00000   0.0000000000  -0.0000012270  0.0  0.0
        2064.9           4.18           7.41           0.00        0.00000        0.00000   0.0000000000   0.0000015290  0.0  0.0
        1530.2           4.47           6.63           0.00        0.00000        0.00000   0.0000000000   0.0000007041  0.0  0.0
        1020.8           4.73           5.53           0.00        0.00000        0.00000   0.0000000000  -0.0000001676  0.0  0.0
         535.0           4.99           4.44           0.00        0.00000        0.00000   0.0000000000  -0.0000010390  0.0  0.0
          71.0           5.38           3.05           0.00        0.00000        0.00000   0.0000000000  -0.0000078380  0.0  0.0
1997 06 28 9000
0.00 
97285.89 
298.63 
0.01611070 
20   
       30405.4           5.14           3.07           0.00        0.00000        0.00000   0.0000000000   0.0000031240  0.0  0.0
       16260.9           4.08           4.25           0.00        0.00000        0.00000   0.0000000000   0.0000042270  0.0  0.0
       15402.2           3.40           5.28           0.00        0.00000        0.00000   0.0000000000   0.0000028830  0.0  0.0
       13162.3           3.59           5.91           0.00        0.00000        0.00000   0.0000000000   0.0000013190  0.0  0.0
       11470.7           4.10           5.86           0.00        0.00000        0.00000   0.0000000000   0.0000052420  0.0  0.0
       10082.2           4.50           5.01           0.00        0.00000        0.00000   0.0000000000  -0.0000027260  0.0  0.0
        8891.3           4.94           4.03           0.00        0.00000        0.00000   0.0000000000  -0.0000052820  0.0  0.0
        7840.3           5.38           3.05           0.00        0.00000        0.00000   0.0000000000  -0.0000078380  0.0  0.0
        6896.6           5.14           3.07           0.00        0.00000        0.00000   0.0000000000   0.0000031240  0.0  0.0
        6039.4           4.08           4.25           0.00        0.00000        0.00000   0.0000000000   0.0000042270  0.0  0.0
        5253.6           3.40           5.28           0.00        0.00000        0.00000   0.0000000000   0.0000028830  0.0  0.0
        4528.3           3.59           5.91           0.00        0.00000        0.00000   0.0000000000   0.0000013190  0.0  0.0
        3854.3           4.10           5.86           0.00        0.00000        0.00000   0.0000000000   0.0000052420  0.0  0.0
        3223.0           4.50           5.01           0.00        0.00000        0.00000   0.0000000000  -0.0000027260  0.0  0.0
        2628.0           4.94           4.03           0.00        0.00000        0.00000   0.0000000000  -0.0000052820  0.0  0.0
        2064.9           5.38           3.05           0.00        0.00000        0.00000   0.0000000000  -0.0000078380  0.0  0.0
        1530.2           5.14           3.07           0.00        0.00000        0.00000   0.0000000000   0.0000031240  0.0  0.0
        1020.8           4.08           4.25           0.00        0.00000        0.00000   0.0000000000   0.0000042270  0.0  0.0
         535.0           3.40           5.28           0.00        0.00000        0.00000   0.0000000000   0.0000028830  0.0  0.0
          71.0           3.59           5.91           0.00        0.00000        0.00000   0.0000000000   0.0000013190  0.0  0.0
1997 06 28 19800
0.00 
97285.89 
298.63 
0.01611070 
20   
       30405.4           4.10           5.86           0.00        0.00000        0.00000   0.0000000000   0.0000052420  0.0  0.0
       16260.9           4.50           5.01           0.00        0.00000        0.00000   0.0000000000  -0.0000027260  0.0  0.0
       15402.2           4.94           4.03           0.00        0.00000        0.00000   0.0000000000  -0.0000052820  0.0  0.0
       13162.3           5.38           3.05           0.00        0.00000        0.00000   0.0000000000  -0.0000078380  0.0  0.0
       11470.7           5.14           3.07           0.00        0.00000        0.00000   0.0000000000   0.0000031240  0.0  0.0
       10082.2           4.08           4.25           0.00        0.00000        0.00000   0.0000000000   0.0000042270  0.0  0.0
        8891.3           3.40           5.28           0.00        0.00000        0.00000   0.0000000000   0.0000028830  0.0  0.0
        7840.3           3.59           5.91           0.00        0.00000        0.00000   0.0000000000   0.0000013190  0.0  0.0
        6896.6           4.10           5.86           0.00        0.00000        0.00000   0.0000000000   0.0000052420  0.0  0.0
        6039.4           4.50           5.01           0.00        0.00000        0.00000   0.0000000000  -0.0000027260  0.0  0.0
        5253.6           4.94           4.03           0.00        0.00000        0.00000   0.0000000000  -0.0000052820  0.0  0.0
        4528.3           5.38           3.05           0.00        0.00000        0.00000   0.0000000000  -0.0000078380  0.0  0.0
        3854.3           5.08           1.70           0.00        0.00000        0.00000   0.0000000000  -0.0000124800  0.0  0.0
        3223.0           5.04           2.06           0.00        0.00000        0.00000   0.0000000000   0.0000011140  0.0  0.0
        2628.0           4.43           3.28           0.00        0.00000        0.00000   0.0000000000   0.0000036150  0.0  0.0
        2064.9           4.12           4.06           0.00        0.00000        0.00000   0.0000000000   0.0000040830  0.0  0.0
        1530.2           3.97           4.33           0.00        0.00000        0.00000   0.0000000000   0.0000046640  0.0  0.0
        1020.8           3.72           4.15           0.00        0.00000        0.00000   0.0000000000   0.0000087910  0.0  0.0
         535.0           3.99           3.36           0.00        0.00000        0.00000   0.0000000000  -0.0000047400  0.0  0.0
          71.0           4.53           2.53           0.00        0.00000        0.00000   0.0000000000  -0.0000086100  0.0  0.0
1997 06 28 30600
0.00 
97285.89 
298.63 
0.01611070 
20   
       30405.4           5.08           1.70           0.00        0.00000        0.00000   0.0000000000  -0.0000124800  0.0  0.0
       16260.9           5.04           2.06           0.00        0.00000        0.00000   0.0000000000   0.0000011140  0.0  0.0
       15402.2           4.43           3.28           0.00        0.00000        0.00000   0.0000000000   0.0000036150  0.0  0.0
       13162.3           4.12           4.06           0.00        0.00000        0.00000   0.0000000000   0.0000040830  0.0  0.0
       11470.7           3.97           4.33           0.00        0.00000        0.00000   0.0000000000   0.0000046640  0.0  0.0
       10082.2           3.72           4.15           0.00        0.00000        0.00000   0.0000000000   0.0000087910  0.0  0.0
        8891.3           3.99           3.36           0.00        0.00000        0.00000   0.0000000000  -0.0000047400  0.0  0.0
        7840.3           4.53           2.53           0.00        0.00000        0.00000   0.0000000000  -0.0000086100  0.0  0.0
        6896.6           5.08           1.70           0.00        0.00000        0.00000   0.0000000000  -0.0000124800  0.0  0.0
        6039.4           5.04           2.06           0.00        0.00000        0.00000   0.0000000000   0.0000011140  0.0  0.0
        5253.6           4.43           3.28           0.00        0.00000        0.00000   0.0000000000   0.0000036150  0.0  0.0
        4528.3           4.12           4.06           0.00        0.00000        0.00000   0.0000000000   0.0000040830  0.0  0.0
        3854.3           3.97           4.33           0.00        0.00000        0.00000   0.0000000000   0.0000046640  0.0  0.0
        3223.0           3.72           4.15           0.00        0.00000        0.00000   0.0000000000   0.0000087910  0.0  0.0
        2628.0           3.99           3.36           0.00        0.00000        0.00000   0.0000000000  -0.0000047400  0.0  0.0
        2064.9           4.53           2.53           0.00        0.00000        0.00000   0.0000000000  -0.0000086100  0.0  0.0
        1530.2           5.08           1.70           0.00        0.00000        0.00000   0.0000000000  -0.0000124800  0.0  0.0
        1020.8           5.04           2.06           0.00        0.00000        0.00000   0.0000000000   0.0000011140  0.0  0.0
         535.0           4.43           3.28           0.00        0.00000        0.00000   0.0000000000   0.0000036150  0.0  0.0
          71.0           4.12           4.06           0.00        0.00000        0.00000   0.0000000000   0.0000040830  0.0  0.0
1997 06 28 41400
0.00 
97285.89 
298.63 
0.01611070 
20   
       30405.4           3.97           4.33           0.00        0.00000        0.00000   0.0000000000   0.0000046640  0.0  0.0
       16260.9           3.72           4.15           0.00        0.00000        0.00000   0.0000000000   0.0000087910  0.0  0.0
       15402.2           3.99           3.36           0.00        0.00000        0.00000   0.0000000000  -0.0000047400  0.0  0.0
       13162.3           4.53           2.53           0.00        0.00000        0.00000   0.0000000000  -0.0000086100  0.0  0.0
       11470.7           5.08           1.70           0.00        0.00000        0.00000   0.0000000000  -0.0000124800  0.0  0.0
       10082.2           4.61           0.73           0.00        0.00000        0.00000   0.0000000000  -0.0000133100  0.0  0.0
        8891.3           4.98           1.28           0.00        0.00000        0.00000   0.0000000000  -0.0000009153  0.0  0.0
        7840.3           4.90           2.14           0.00        0.00000        0.00000   0.0000000000  -0.0000010920  0.0  0.0
        6896.6           4.79           2.47           0.00        0.00000        0.00000   0.0000000000   0.0000002328  0.0  0.0
        6039.4           4.20           2.56           0.00        0.00000        0.00000   0.0000000000   0.0000042880  0.0  0.0
        5253.6           3.22           2.85           0.00        0.00000        0.00000   0.0000000000   0.0000087470  0.0  0.0
        4528.3           3.30           2.15           0.00        0.00000        0.00000   0.0000000000  -0.0000066400  0.0  0.0
        3854.3           3.96           1.44           0.00        0.00000        0.00000   0.0000000000  -0.0000099730  0.0  0.0