&NAM_CONFIO
  LCDF4 = .TRUE.,
  LLFIOUT = .FALSE.,
  LLFIREAD = .FALSE.,
/ 

&NAM_CONFZ
  NZ_VERB = 0,
  NZ_PROC = 0,
  NB_PROCIO_R = 1,
  NB_PROCIO_W = 1,
  MPI_BUFFER_SIZE = 400,
  LMNH_MPI_BSEND = .TRUE.,
  LMNH_MPI_ALLTOALLV_REMAP = .FALSE.,
  NZ_SPLITTING = 10,
/ 

&NAM_LUNITn
  CINIFILE = 'init_MAIZE',
  CINIFILEPGD = 'init_MAIZE_PGD',
/ 

&NAM_DIMn_PRE
  NIMAX = 1024,
  NJMAX = 1024,
/ 

&NAM_DYNn_PRE
  CPRESOPT = 'CRESI',
  XRELAX = 1.,
  LRES = .FALSE.,
  XRES = 1.E-07,
/ 

&NAM_GRID_PRE
  XLON0 = 0.36,
  XLAT0 = 43.09,
  XBETA = 0.,
  XRPK = 1.,
  XLONORI = 350.,
  XLATORI = 37.,
/ 

&NAM_VER_GRID
  LTHINSHELL = .TRUE.,
  NKMAX = 160,
  YZGRID_TYPE = 'FUNCTN',
  ZDZGRD = 25.000000,
  ZDZTOP = 25.000000,
  ZZMAX_STRGRD = 1000.000000,
  ZSTRGRD = 0,
  ZSTRTOP = 0.000000,
  LSLEVE = .FALSE.,
  XLEN1 = 7500.,
  XLEN2 = 2500.,
/ 

&NAM_CONF_PRE
  LCARTESIAN = .TRUE.,
  LPACK = .TRUE.,
  CEQNSYS = 'DUR',
  NVERB = 10,
  CIDEAL = 'RSOU',
  CZS = 'FLAT',
  LBOUSS = .FALSE.,
  LPERTURB = .TRUE.,
  LFORCING = .TRUE.,
  LSHIFT = .FALSE.,
  L2D_ADV_FRC = .FALSE.,
  L2D_REL_FRC = .FALSE.,
  NHALO = 1,
  JPHEXT = 1,
/ 

&NAM_PERT_PRE
  CPERT_KIND = 'WH',
  XAMPLITH = 1.5,
  XAMPLIRV = 0.0,
  XAMPLIUV = 1.0834,
  XAMPLIWH = 0.1,
  NKWH = 2,
  LSET_RHU = .TRUE.,
  XCENTERZ = 2000.,
  XRADX = 10000.,
  XRADY = 10000.,
  XRADZ = 2000.,
  LWH_LBXU = .FALSE.,
  LWH_LBYV = .FALSE.,
/ 

&NAM_GRIDH_PRE
  XDELTAX = 25.000000,
  XDELTAY = 25.000000,
  XHMAX = 0.,
  NEXPX = 3,
  NEXPY = 1,
  XAX = 10000.,
  XAY = 10000.,
  NIZS = 5,
  NJZS = 5,
/ 

&NAM_GRn_PRE
  CSURF = 'EXTE',
/ 

&NAM_CONFn
  LUSERV = .TRUE.,
  LUSERC = .FALSE.,
  LUSERR = .FALSE.,
  LUSERI = .FALSE.,
  LUSERS = .FALSE.,
  LUSERG = .FALSE.,
  LUSERH = .FALSE.,
  LUSECI = .FALSE.,
/ 

&NAM_LBCn
  CLBCX(1) = 'CYCL',
  CLBCX(2) = 'CYCL',
  CLBCY(1) = 'CYCL',
  CLBCY(2) = 'CYCL',
  NLBLX(:) = 1,
  NLBLY(:) = 1,
  XCPHASE = 20.,
  XCPHASE_PBL = 0.,
  XPOND = 1.0,
/ 

&NAM_PGD_SCHEMES
  CSEA = 'FLUX',
/ 

&NAM_COVER
  XUNIF_COVER(1) = 1.,
  XUNIF_COVER(6) = 0.,
/ 

&NAM_SEABATHY
  XUNIF_SEABATHY = 5.,
/ 

&NAM_PREP_SEAFLUX
  XSST_UNIF = 280.,
/ 

&NAM_DATA_SEAFLUX
  LSST_DATA = .FALSE.,
  NTIME_SST = 0,
  NYEAR_SST(1) = 1980,
  NMONTH_SST(1) = 1,
  NDAY_SST(1) = 1,
  XTIME_SST(1) = 0.,
  XUNIF_SST(1) = 280.,
/ 

&NAM_FRAC
  LECOCLIMAP = .TRUE.,
  XUNIF_NATURE = 1.,
/ 

&NAM_DATA_TSZ0
  NTIME = 0,
  XUNIF_DTS(1) = -0.250,
/ 

&NAM_DATA_ISBA
  NTIME = 0,
  XUNIF_Z0(1,1) = 0,
/ 

&NAM_ISBA
  XUNIF_CLAY = 1.,
  XUNIF_SAND = 0.,
  XUNIF_RUNOFFB = 0.5,
  CISBA = '2-L',
  CPHOTO = 'NON',
  NPATCH = 1,
  NGROUND_LAYER = 2,
/ 

&NAM_MOSAIn
  NGROUND_LAYER = 11,
  CCDRAG = 'SURFEX',
/ 

&NAM_DATA_MOSAI
  XUNIF_Z0 = 0.035,
  XUNIF_ALB = 0.164,
  XUNIF_EMIS = 0.99 ,
  XUNIF_Z0_O_Z0H = 1.   ,
  XUNIF_BETA = 0.32 ,
  XUNIF_ITHGRD = 600. ,
/ 

&NAM_PREP_MOSAI
  XTG = 286.4,
  XTS = 286.4,
/ 

&NAM_PREP_SURF_ATM
  NYEAR = 1980,
  NMONTH = 1,
  NDAY = 1,
  XTIME = 0.,
/ 

&NAM_PREP_ISBA
  XHUG_SURF = 0.,
  XHUG_ROOT = 0.,
  XHUG_DEEP = 0.,
  XHUGI_SURF = 1.,
  XHUGI_ROOT = 1.,
  XHUGI_DEEP = 1.,
  XTG_SURF = 280,
  XTG_ROOT = 280,
  XTG_DEEP = 280,
  LISBA_CANOPY = .FALSE.,
  NYEAR = 1980,
  NMONTH = 1,
  NDAY = 1,
  XTIME = 0.,
/ 

&NAM_DEEPSOIL
  LPHYSDOMC = .FALSE.,
  LDEEPSOIL = .FALSE.,
/ 


RSOU
2023 08 19 18000
ZUVTHDMR   
0.00 
95000.00 
298.69 
0.01507196 
3472   
          41.3           4.74           0.93
          44.1           4.84           0.88
          47.4           4.97           0.82
          51.2           5.13           0.77
          53.8           5.23           0.74
          59.9           5.49           0.69
          62.1           5.58           0.67
          64.7           5.69           0.67
          70.6           5.96           0.67
          73.6           6.09           0.68
          77.3           6.26           0.69
          82.6           6.51           0.73
          87.3           6.74           0.77
          91.9           6.97           0.81
          96.0           7.18           0.85
         102.2           7.49           0.91
         108.2           7.81           0.96
         111.5           7.98           0.98
         116.0           8.22           1.00
         122.4           8.55           1.02
         125.4           8.70           1.02
         128.7           8.87           1.02
         134.9           9.19           0.99
         140.6           9.47           0.94
         148.4           9.84           0.85
         155.0          10.14           0.74
         159.1          10.32           0.66
         163.1          10.49           0.58
         169.4          10.75           0.43
         176.5          11.03           0.24
         180.3          11.18           0.13
         185.8          11.38          -0.03
         190.1          11.53          -0.16
         196.7          11.75          -0.37
         202.2          11.91          -0.55
         207.5          12.06          -0.72
         213.5          12.22          -0.91
         223.0          12.43          -1.18
         225.7          12.48          -1.25
         233.0          12.60          -1.42
         236.9          12.65          -1.50
         240.7          12.69          -1.56
         243.4          12.71          -1.61
         247.3          12.73          -1.66
         253.6          12.75          -1.72
         259.7          12.74          -1.76
         262.9          12.73          -1.77
         266.8          12.70          -1.78
         271.2          12.66          -1.78
         276.8          12.60          -1.78
         281.2          12.54          -1.78
         286.2          12.46          -1.77
         292.6          12.35          -1.76
         297.3          12.26          -1.76
         302.3          12.17          -1.76
         306.4          12.08          -1.77
         308.1          12.05          -1.77
         311.4          11.98          -1.78
         315.4          11.90          -1.79
         318.8          11.84          -1.81
         321.9          11.78          -1.83
         325.4          11.71          -1.85
         328.2          11.66          -1.87
         331.4          11.60          -1.89
         335.2          11.54          -1.92
         338.5          11.48          -1.95
         341.0          11.44          -1.97
         343.5          11.40          -1.99
         347.2          11.35          -2.02
         350.3          11.31          -2.05
         354.0          11.26          -2.08
         357.6          11.21          -2.11
         361.0          11.17          -2.14
         363.0          11.14          -2.16
         366.4          11.10          -2.19
         369.1          11.07          -2.21
         372.8          11.03          -2.23
         375.9          11.00          -2.26
         378.9          10.96          -2.28
         384.9          10.90          -2.31
         384.5          10.90          -2.31
         388.3          10.86          -2.34
         392.8          10.81          -2.36
         395.2          10.79          -2.37
         398.7          10.75          -2.39
         403.0          10.70          -2.42
         408.6          10.64          -2.44
         411.9          10.61          -2.46
         413.1          10.59          -2.46
         416.4          10.56          -2.48
         418.8          10.53          -2.49
         422.7          10.49          -2.50
         425.1          10.47          -2.51
         428.3          10.44          -2.53
         432.0          10.40          -2.54
         435.1          10.38          -2.55
         438.1          10.35          -2.57
         440.5          10.33          -2.58
         443.7          10.31          -2.59
         446.9          10.29          -2.60
         451.0          10.26          -2.62
         453.9          10.25          -2.64
         456.3          10.23          -2.65
         459.3          10.22          -2.66
         462.1          10.21          -2.68
         465.5          10.20          -2.70
         468.1          10.19          -2.71
         471.2          10.18          -2.73
         474.5          10.17          -2.75
         477.5          10.16          -2.77
         480.2          10.16          -2.79
         482.7          10.15          -2.81
         486.4          10.15          -2.83
         489.8          10.14          -2.86
         493.3          10.14          -2.89
         496.8          10.13          -2.92
         500.2          10.12          -2.94
         504.2          10.11          -2.98
         507.4          10.11          -3.01
         511.1          10.09          -3.04
         515.4          10.08          -3.08
         519.0          10.07          -3.11
         522.4          10.06          -3.14
         526.3          10.04          -3.17
         529.8          10.03          -3.20
         533.5          10.01          -3.23
         537.2           9.99          -3.26
         540.4           9.98          -3.28
         544.9           9.96          -3.31
         548.1           9.94          -3.34
         552.1           9.93          -3.36
         556.1           9.91          -3.39
         559.5           9.89          -3.41
         563.1           9.88          -3.43
         566.3           9.87          -3.45
         569.6           9.85          -3.47
         573.0           9.84          -3.49
         577.2           9.83          -3.51
         583.5           9.81          -3.55
         587.2           9.79          -3.57
         588.8           9.79          -3.58
         592.1           9.77          -3.60
         594.5           9.76          -3.62
         598.6           9.74          -3.64
         601.5           9.73          -3.67
         605.1           9.71          -3.69
         608.8           9.69          -3.72
         611.8           9.67          -3.74
         615.1           9.64          -3.77
         618.8           9.62          -3.80
         622.1           9.59          -3.83
         626.1           9.55          -3.86
         628.8           9.53          -3.88
         632.5           9.49          -3.91
         636.2           9.45          -3.95
         639.7           9.42          -3.97
         643.5           9.38          -4.00
         646.6           9.34          -4.03
         650.0           9.31          -4.05
         653.6           9.27          -4.08
         655.6           9.24          -4.09
         659.8           9.20          -4.12
         662.1           9.17          -4.13
         666.0           9.14          -4.15
         669.3           9.10          -4.16
         672.9           9.07          -4.18
         675.6           9.05          -4.18
         678.7           9.02          -4.19
         682.1           8.99          -4.20
         685.7           8.97          -4.20
         688.9           8.94          -4.20
         692.7           8.92          -4.20
         695.3           8.91          -4.20
         698.8           8.89          -4.19
         702.7           8.87          -4.18
         705.6           8.86          -4.17
         709.2           8.84          -4.16
         713.5           8.82          -4.15
         716.0           8.81          -4.14
         719.9           8.80          -4.12
         723.1           8.79          -4.11
         727.5           8.77          -4.08
         731.2           8.76          -4.06
         734.6           8.75          -4.05
         739.0           8.73          -4.02
         742.0           8.71          -4.00
         745.0           8.70          -3.99
         749.5           8.67          -3.96
         752.6           8.66          -3.94
         755.6           8.64          -3.92
         759.4           8.61          -3.89
         762.6           8.59          -3.87
         766.2           8.56          -3.85
         770.0           8.52          -3.82
         772.9           8.49          -3.80
         777.3           8.44          -3.77
         781.2           8.40          -3.74
         784.4           8.36          -3.71
         788.2           8.31          -3.68
         790.5           8.27          -3.66
         794.5           8.21          -3.62
         797.5           8.17          -3.60
         801.6           8.10          -3.56
         805.7           8.03          -3.52
         809.2           7.96          -3.49
         812.7           7.90          -3.46
         815.6           7.84          -3.43
         818.6           7.78          -3.40
         822.5           7.70          -3.36
         825.5           7.63          -3.33
         829.4           7.55          -3.30
         832.5           7.48          -3.27
         836.7           7.39          -3.24
         840.5           7.30          -3.20
         843.5           7.23          -3.18
         846.5           7.16          -3.16
         850.7           7.06          -3.12
         855.6           6.94          -3.09
         859.3           6.85          -3.07
         864.3           6.73          -3.03
         869.2           6.60          -3.01
         873.1           6.51          -2.99
         877.5           6.40          -2.96
         881.7           6.30          -2.94
         885.9           6.19          -2.92
         890.2           6.09          -2.90
         893.4           6.01          -2.89
         897.7           5.90          -2.87
         901.1           5.82          -2.86
         904.5           5.74          -2.84
         908.4           5.65          -2.82
         911.9           5.57          -2.81
         914.7           5.51          -2.80
         918.0           5.44          -2.78
         921.3           5.37          -2.76
         925.4           5.28          -2.75
         928.6           5.22          -2.73
         932.1           5.15          -2.71
         934.3           5.11          -2.70
         937.8           5.04          -2.69
         941.2           4.98          -2.67
         945.3           4.91          -2.65
         948.6           4.85          -2.63
         951.7           4.80          -2.62
         955.7           4.74          -2.60
         959.0           4.69          -2.59
         962.7           4.63          -2.57
         967.1           4.57          -2.56
         970.1           4.53          -2.55
         974.1           4.47          -2.54
         979.0           4.41          -2.53
         983.2           4.35          -2.53
         987.0           4.30          -2.52
         991.5           4.25          -2.52
         994.6           4.21          -2.52
         998.2           4.17          -2.53
        1001.4           4.13          -2.53
        1005.9           4.08          -2.54
        1010.0           4.03          -2.55
        1014.2           3.98          -2.57
        1018.1           3.94          -2.58
        1022.7           3.89          -2.60
        1025.9           3.85          -2.61
        1030.1           3.80          -2.63
        1034.6           3.76          -2.65
        1037.4           3.73          -2.66
        1041.0           3.69          -2.67
        1045.2           3.65          -2.69
        1048.3           3.62          -2.70
        1052.4           3.58          -2.72
        1055.3           3.55          -2.72
        1058.5           3.52          -2.73
        1063.2           3.48          -2.74
        1066.1           3.46          -2.75
        1070.0           3.42          -2.75
        1074.4           3.39          -2.76
        1078.1           3.36          -2.76
        1081.4           3.33          -2.76
        1085.7           3.29          -2.76
        1088.9           3.27          -2.75
        1092.4           3.24          -2.75
        1096.3           3.21          -2.75
        1098.3           3.19          -2.74
        1102.9           3.15          -2.73
        1106.0           3.13          -2.73
        1110.0           3.09          -2.72
        1113.6           3.06          -2.71
        1117.2           3.03          -2.70
        1121.5           2.99          -2.69
        1124.8           2.96          -2.68
        1128.4           2.92          -2.66
        1132.8           2.88          -2.65
        1136.3           2.85          -2.64
        1139.9           2.82          -2.63
        1144.2           2.77          -2.61
        1147.3           2.74          -2.60
        1151.3           2.71          -2.59
        1155.0           2.67          -2.58
        1158.3           2.64          -2.57
        1162.6           2.60          -2.55
        1166.0           2.56          -2.54
        1170.3           2.52          -2.53
        1174.0           2.49          -2.52
        1177.3           2.46          -2.51
        1181.7           2.42          -2.50
        1185.0           2.38          -2.49
        1189.5           2.34          -2.48
        1193.3           2.31          -2.47
        1196.1           2.28          -2.47
        1200.0           2.25          -2.46
        1203.3           2.22          -2.45
        1206.8           2.19          -2.44
        1210.9           2.16          -2.43
        1214.5           2.13          -2.42
        1217.6           2.11          -2.41
        1221.6           2.08          -2.40
        1224.3           2.06          -2.38
        1229.0           2.02          -2.36
        1232.6           2.00          -2.35
        1236.1           1.98          -2.33
        1240.4           1.95          -2.30
        1245.3           1.92          -2.27
        1249.2           1.89          -2.24
        1252.4           1.88          -2.22
        1255.9           1.85          -2.19
        1259.9           1.83          -2.16
        1263.3           1.81          -2.13
        1267.9           1.78          -2.09
        1272.2           1.76          -2.05
        1275.5           1.73          -2.02
        1279.4           1.71          -1.98
        1283.3           1.68          -1.94
        1287.6           1.65          -1.90
        1291.5           1.62          -1.87
        1295.6           1.59          -1.83
        1298.4           1.57          -1.80
        1302.2           1.54          -1.77
        1306.8           1.50          -1.73
        1309.9           1.47          -1.70
        1313.0           1.44          -1.68
        1316.9           1.40          -1.65
        1319.9           1.37          -1.62
        1324.0           1.33          -1.59
        1326.7           1.30          -1.56
        1330.8           1.25          -1.53
        1334.7           1.20          -1.50
        1338.5           1.15          -1.46
        1344.3           1.07          -1.41
        1349.2           1.01          -1.36
        1354.1           0.94          -1.32
        1356.6           0.90          -1.29
        1361.5           0.84          -1.24
        1366.8           0.77          -1.17
        1370.3           0.72          -1.13
        1375.6           0.66          -1.06
        1380.9           0.60          -0.99
        1386.4           0.54          -0.92
        1391.2           0.49          -0.85
        1394.6           0.47          -0.80
        1399.0           0.43          -0.74
        1403.9           0.40          -0.67
        1406.7           0.39          -0.63
        1411.0           0.37          -0.58
        1414.4           0.35          -0.53
        1418.2           0.34          -0.49
        1422.5           0.33          -0.44
        1425.9           0.32          -0.40
        1429.6           0.31          -0.37
        1433.8           0.30          -0.33
        1437.8           0.29          -0.30
        1440.7           0.28          -0.28
        1445.7           0.27          -0.26
        1449.3           0.27          -0.24
        1452.8           0.26          -0.23
        1457.8           0.25          -0.22
        1460.9           0.24          -0.22
        1465.1           0.24          -0.22
        1469.6           0.23          -0.22
        1472.5           0.23          -0.22
        1477.7           0.22          -0.22
        1481.2           0.22          -0.23
        1485.2           0.22          -0.24
        1489.5           0.22          -0.25
        1493.5           0.23          -0.26
        1497.6           0.23          -0.27
        1501.6           0.24          -0.28
        1505.3           0.25          -0.29
        1508.6           0.25          -0.31
        1512.3           0.26          -0.32
        1517.1           0.27          -0.34
        1520.6           0.28          -0.35
        1524.7           0.29          -0.37
        1529.3           0.31          -0.40
        1532.5           0.31          -0.41
        1536.6           0.32          -0.44
        1541.1           0.34          -0.46
        1545.4           0.34          -0.49
        1548.7           0.35          -0.51
        1552.6           0.36          -0.53
        1556.5           0.36          -0.56
        1560.2           0.37          -0.58
        1563.5           0.37          -0.61
        1567.2           0.37          -0.63
        1570.7           0.37          -0.66
        1573.9           0.36          -0.68
        1577.7           0.36          -0.70
        1582.0           0.35          -0.73
        1587.1           0.34          -0.77
        1590.6           0.33          -0.79
        1594.9           0.31          -0.82
        1598.0           0.30          -0.84
        1602.1           0.28          -0.86
        1606.7           0.25          -0.88
        1610.0           0.23          -0.90
        1614.4           0.21          -0.91
        1617.6           0.19          -0.92
        1621.1           0.16          -0.93
        1625.0           0.14          -0.94
        1629.1           0.11          -0.95
        1632.3           0.09          -0.95
        1635.9           0.06          -0.94
        1639.6           0.04          -0.94
        1642.8           0.02          -0.93
        1646.2          -0.00          -0.92
        1649.0          -0.02          -0.91
        1652.5          -0.04          -0.89
        1657.0          -0.05          -0.86
        1660.6          -0.07          -0.83
        1663.9          -0.08          -0.81
        1667.0          -0.08          -0.78
        1670.7          -0.09          -0.74
        1673.1          -0.09          -0.72
        1676.6          -0.09          -0.68
        1679.3          -0.08          -0.65
        1683.1          -0.08          -0.61
        1686.4          -0.07          -0.57
        1690.0          -0.05          -0.52
        1693.9          -0.03          -0.47
        1697.3          -0.02          -0.43
        1701.1           0.01          -0.38
        1704.5           0.03          -0.34
        1708.7           0.06          -0.28
        1712.2           0.09          -0.24
        1715.5           0.12          -0.19
        1719.1           0.15          -0.15
        1723.1           0.18          -0.10
        1725.9           0.21          -0.07
        1730.1           0.25          -0.02
        1733.5           0.28           0.02
        1736.5           0.31           0.06
        1740.7           0.35           0.10
        1744.0           0.38           0.14
        1748.5           0.43           0.18
        1751.9           0.46           0.21
        1756.0           0.49           0.25
        1760.6           0.53           0.29
        1764.2           0.56           0.31
        1767.7           0.59           0.34
        1771.9           0.62           0.37
        1775.6           0.65           0.39
        1779.4           0.67           0.41
        1783.6           0.70           0.43
        1786.4           0.71           0.45
        1790.0           0.73           0.46
        1793.5           0.75           0.48
        1797.4           0.76           0.49
        1800.7           0.78           0.51
        1804.0           0.78           0.52
        1808.3           0.79           0.53
        1811.5           0.80           0.55
        1815.0           0.81           0.56
        1818.7           0.81           0.57
        1822.9           0.81           0.59
        1826.2           0.81           0.60
        1830.5           0.80           0.62
        1834.4           0.80           0.63
        1837.4           0.80           0.65
        1841.8           0.79           0.67
        1845.0           0.78           0.68
        1848.4           0.78           0.70
        1851.4           0.77           0.72
        1855.7           0.76           0.74
        1858.8           0.75           0.76
        1862.8           0.74           0.78
        1865.5           0.73           0.80
        1869.3           0.72           0.82
        1873.3           0.71           0.85
        1877.1           0.70           0.88
        1880.9           0.69           0.91
        1883.7           0.68           0.93
        1887.5           0.67           0.96
        1890.3           0.66           0.98
        1894.0           0.65           1.01
        1897.7           0.63           1.04
        1901.7           0.62           1.07
        1906.1           0.61           1.10
        1908.3           0.60           1.12
        1912.1           0.59           1.15
        1915.6           0.57           1.18
        1919.3           0.56           1.21
        1922.0           0.55           1.23
        1925.9           0.53           1.27
        1928.9           0.52           1.29
        1933.0           0.50           1.32
        1936.2           0.49           1.34
        1940.0           0.48           1.37
        1944.1           0.46           1.40
        1947.4           0.44           1.42
        1951.2           0.43           1.45
        1954.7           0.41           1.47
        1958.5           0.40           1.49
        1962.4           0.38           1.52
        1965.5           0.36           1.54
        1969.3           0.35           1.56
        1973.3           0.33           1.58
        1976.6           0.31           1.60
        1980.7           0.30           1.63
        1983.7           0.28           1.65
        1987.7           0.27           1.67
        1990.1           0.26           1.68
        1994.3           0.24           1.70
        1998.6           0.22           1.73
        2001.9           0.21           1.75
        2005.0           0.20           1.76
        2008.9           0.19           1.78
        2012.2           0.18           1.80
        2014.9           0.17           1.81
        2019.4           0.15           1.83
        2023.5           0.14           1.85
        2027.4           0.13           1.86
        2030.7           0.12           1.88
        2034.8           0.11           1.89
        2038.2           0.10           1.90
        2042.0           0.10           1.92
        2046.1           0.09           1.93
        2049.7           0.08           1.95
        2053.1           0.07           1.96
        2056.7           0.06           1.97
        2059.9           0.06           1.98
        2064.1           0.05           2.00
        2067.6           0.04           2.02
        2071.5           0.03           2.04
        2074.5           0.03           2.05
        2077.9           0.02           2.07
        2080.9           0.01           2.09
        2085.1           0.01           2.11
        2088.8          -0.00           2.13
        2092.6          -0.01           2.16
        2096.3          -0.01           2.18
        2099.1          -0.02           2.20
        2102.4          -0.02           2.22
        2106.0          -0.03           2.25
        2109.4          -0.03           2.27
        2113.1          -0.04           2.30
        2117.1          -0.04           2.33
        2120.0          -0.04           2.35
        2124.1          -0.04           2.37
        2127.5          -0.04           2.39
        2130.5          -0.04           2.41
        2134.0          -0.04           2.43
        2137.8          -0.04           2.45
        2141.5          -0.03           2.47
        2145.0          -0.03           2.48
        2147.9          -0.03           2.49
        2151.1          -0.02           2.51
        2155.0          -0.02           2.52
        2158.6          -0.01           2.53
        2161.9          -0.01           2.54
        2166.4          -0.01           2.55
        2169.9          -0.01           2.56
        2173.5          -0.01           2.57
        2177.4          -0.01           2.58
        2180.9          -0.01           2.58
        2184.6          -0.02           2.59
        2188.1          -0.02           2.60
        2192.0          -0.03           2.61
        2196.7          -0.03           2.63
        2200.0          -0.04           2.64
        2204.3          -0.05           2.66
        2208.4          -0.05           2.67
        2212.0          -0.06           2.69
        2216.1          -0.06           2.70
        2220.1          -0.07           2.72
        2223.6          -0.07           2.74
        2227.6          -0.07           2.75
        2231.3          -0.06           2.77
        2235.2          -0.06           2.78
        2239.7          -0.05           2.80
        2243.4          -0.04           2.82
        2247.4          -0.02           2.83
        2251.8           0.00           2.84