&NAM_CONFIO
  LCDF4 = .TRUE.,
  LLFIOUT = .FALSE.,
  LLFIREAD = .FALSE.,
/ 

&NAM_CONFZ
  NZ_VERB = 0,
  NZ_PROC = 0,
  NB_PROCIO_R = 1,
  NB_PROCIO_W = 1,
  MPI_BUFFER_SIZE = 40,
  LMNH_MPI_BSEND = .TRUE.,
  LMNH_MPI_ALLTOALLV_REMAP = .FALSE.,
  NZ_SPLITTING = 10,
/ 

&NAM_LUNITn
  CINIFILE = 'init_EUROC',
  CINIFILEPGD = 'init_EUROC_PGD',
/ 

&NAM_BACKUP
  XBAK_TIME_FREQ(1) = 345600.000000,
  XBAK_TIME_FREQ_FIRST(1) = 0.000000,
/ 

&NAM_IDEAL_FLUX
  NFORCF = 193,
  NFORCT = 193,
  CSFTQ = 'W/m2',
  CUSTARTYPE = 'Z0',
  XTIMEF(1) = 0.,
  XTIMEF(2) = 1800.000000,
  XTIMEF(3) = 3600.000000,
  XTIMEF(4) = 5400.000000,
  XTIMEF(5) = 7200.000000,
  XTIMEF(6) = 9000.000000,
  XTIMEF(7) = 10800.000000,
  XTIMEF(8) = 12600.000000,
  XTIMEF(9) = 14400.000000,
  XTIMEF(10) = 16200.000000,
  XTIMEF(11) = 18000.000000,
  XTIMEF(12) = 19800.000000,
  XTIMEF(13) = 21600.000000,
  XTIMEF(14) = 23400.000000,
  XTIMEF(15) = 25200.000000,
  XTIMEF(16) = 27000.000000,
  XTIMEF(17) = 28800.000000,
  XTIMEF(18) = 30600.000000,
  XTIMEF(19) = 32400.000000,
  XTIMEF(20) = 34200.000000,
  XTIMEF(21) = 36000.000000,
  XTIMEF(22) = 37800.000000,
  XTIMEF(23) = 39600.000000,
  XTIMEF(24) = 41400.000000,
  XTIMEF(25) = 43200.000000,
  XTIMEF(26) = 45000.000000,
  XTIMEF(27) = 46800.000000,
  XTIMEF(28) = 48600.000000,
  XTIMEF(29) = 50400.000000,
  XTIMEF(30) = 52200.000000,
  XTIMEF(31) = 54000.000000,
  XTIMEF(32) = 55800.000000,
  XTIMEF(33) = 57600.000000,
  XTIMEF(34) = 59400.000000,
  XTIMEF(35) = 61200.000000,
  XTIMEF(36) = 63000.000000,
  XTIMEF(37) = 64800.000000,
  XTIMEF(38) = 66600.000000,
  XTIMEF(39) = 68400.000000,
  XTIMEF(40) = 70200.000000,
  XTIMEF(41) = 72000.000000,
  XTIMEF(42) = 73800.000000,
  XTIMEF(43) = 75600.000000,
  XTIMEF(44) = 77400.000000,
  XTIMEF(45) = 79200.000000,
  XTIMEF(46) = 81000.000000,
  XTIMEF(47) = 82800.000000,
  XTIMEF(48) = 84600.000000,
  XTIMEF(49) = 86400.000000,
  XTIMEF(50) = 88200.000000,
  XTIMEF(51) = 90000.000000,
  XTIMEF(52) = 91800.000000,
  XTIMEF(53) = 93600.000000,
  XTIMEF(54) = 95400.000000,
  XTIMEF(55) = 97200.000000,
  XTIMEF(56) = 99000.000000,
  XTIMEF(57) = 100800.000000,
  XTIMEF(58) = 102600.000000,
  XTIMEF(59) = 104400.000000,
  XTIMEF(60) = 106200.000000,
  XTIMEF(61) = 108000.000000,
  XTIMEF(62) = 109800.000000,
  XTIMEF(63) = 111600.000000,
  XTIMEF(64) = 113400.000000,
  XTIMEF(65) = 115200.000000,
  XTIMEF(66) = 117000.000000,
  XTIMEF(67) = 118800.000000,
  XTIMEF(68) = 120600.000000,
  XTIMEF(69) = 122400.000000,
  XTIMEF(70) = 124200.000000,
  XTIMEF(71) = 126000.000000,
  XTIMEF(72) = 127800.000000,
  XTIMEF(73) = 129600.000000,
  XTIMEF(74) = 131400.000000,
  XTIMEF(75) = 133200.000000,
  XTIMEF(76) = 135000.000000,
  XTIMEF(77) = 136800.000000,
  XTIMEF(78) = 138600.000000,
  XTIMEF(79) = 140400.000000,
  XTIMEF(80) = 142200.000000,
  XTIMEF(81) = 144000.000000,
  XTIMEF(82) = 145800.000000,
  XTIMEF(83) = 147600.000000,
  XTIMEF(84) = 149400.000000,
  XTIMEF(85) = 151200.000000,
  XTIMEF(86) = 153000.000000,
  XTIMEF(87) = 154800.000000,
  XTIMEF(88) = 156600.000000,
  XTIMEF(89) = 158400.000000,
  XTIMEF(90) = 160200.000000,
  XTIMEF(91) = 162000.000000,
  XTIMEF(92) = 163800.000000,
  XTIMEF(93) = 165600.000000,
  XTIMEF(94) = 167400.000000,
  XTIMEF(95) = 169200.000000,
  XTIMEF(96) = 171000.000000,
  XTIMEF(97) = 172800.000000,
  XTIMEF(98) = 174600.000000,
  XTIMEF(99) = 176400.000000,
  XTIMEF(100) = 178200.000000,
  XTIMEF(101) = 180000.000000,
  XTIMEF(102) = 181800.000000,
  XTIMEF(103) = 183600.000000,
  XTIMEF(104) = 185400.000000,
  XTIMEF(105) = 187200.000000,
  XTIMEF(106) = 189000.000000,
  XTIMEF(107) = 190800.000000,
  XTIMEF(108) = 192600.000000,
  XTIMEF(109) = 194400.000000,
  XTIMEF(110) = 196200.000000,
  XTIMEF(111) = 198000.000000,
  XTIMEF(112) = 199800.000000,
  XTIMEF(113) = 201600.000000,
  XTIMEF(114) = 203400.000000,
  XTIMEF(115) = 205200.000000,
  XTIMEF(116) = 207000.000000,
  XTIMEF(117) = 208800.000000,
  XTIMEF(118) = 210600.000000,
  XTIMEF(119) = 212400.000000,
  XTIMEF(120) = 214200.000000,
  XTIMEF(121) = 216000.000000,
  XTIMEF(122) = 217800.000000,
  XTIMEF(123) = 219600.000000,
  XTIMEF(124) = 221400.000000,
  XTIMEF(125) = 223200.000000,
  XTIMEF(126) = 225000.000000,
  XTIMEF(127) = 226800.000000,
  XTIMEF(128) = 228600.000000,
  XTIMEF(129) = 230400.000000,
  XTIMEF(130) = 232200.000000,
  XTIMEF(131) = 234000.000000,
  XTIMEF(132) = 235800.000000,
  XTIMEF(133) = 237600.000000,
  XTIMEF(134) = 239400.000000,
  XTIMEF(135) = 241200.000000,
  XTIMEF(136) = 243000.000000,
  XTIMEF(137) = 244800.000000,
  XTIMEF(138) = 246600.000000,
  XTIMEF(139) = 248400.000000,
  XTIMEF(140) = 250200.000000,
  XTIMEF(141) = 252000.000000,
  XTIMEF(142) = 253800.000000,
  XTIMEF(143) = 255600.000000,
  XTIMEF(144) = 257400.000000,
  XTIMEF(145) = 259200.000000,
  XTIMEF(146) = 261000.000000,
  XTIMEF(147) = 262800.000000,
  XTIMEF(148) = 264600.000000,
  XTIMEF(149) = 266400.000000,
  XTIMEF(150) = 268200.000000,
  XTIMEF(151) = 270000.000000,
  XTIMEF(152) = 271800.000000,
  XTIMEF(153) = 273600.000000,
  XTIMEF(154) = 275400.000000,
  XTIMEF(155) = 277200.000000,
  XTIMEF(156) = 279000.000000,
  XTIMEF(157) = 280800.000000,
  XTIMEF(158) = 282600.000000,
  XTIMEF(159) = 284400.000000,
  XTIMEF(160) = 286200.000000,
  XTIMEF(161) = 288000.000000,
  XTIMEF(162) = 289800.000000,
  XTIMEF(163) = 291600.000000,
  XTIMEF(164) = 293400.000000,
  XTIMEF(165) = 295200.000000,
  XTIMEF(166) = 297000.000000,
  XTIMEF(167) = 298800.000000,
  XTIMEF(168) = 300600.000000,
  XTIMEF(169) = 302400.000000,
  XTIMEF(170) = 304200.000000,
  XTIMEF(171) = 306000.000000,
  XTIMEF(172) = 307800.000000,
  XTIMEF(173) = 309600.000000,
  XTIMEF(174) = 311400.000000,
  XTIMEF(175) = 313200.000000,
  XTIMEF(176) = 315000.000000,
  XTIMEF(177) = 316800.000000,
  XTIMEF(178) = 318600.000000,
  XTIMEF(179) = 320400.000000,
  XTIMEF(180) = 322200.000000,
  XTIMEF(181) = 324000.000000,
  XTIMEF(182) = 325800.000000,
  XTIMEF(183) = 327600.000000,
  XTIMEF(184) = 329400.000000,
  XTIMEF(185) = 331200.000000,
  XTIMEF(186) = 333000.000000,
  XTIMEF(187) = 334800.000000,
  XTIMEF(188) = 336600.000000,
  XTIMEF(189) = 338400.000000,
  XTIMEF(190) = 340200.000000,
  XTIMEF(191) = 342000.000000,
  XTIMEF(192) = 343800.000000,
  XTIMEF(193) = 345600.000000,
  XTIMET(1) = 0.,
  XTIMET(2) = 1800.000000,
  XTIMET(3) = 3600.000000,
  XTIMET(4) = 5400.000000,
  XTIMET(5) = 7200.000000,
  XTIMET(6) = 9000.000000,
  XTIMET(7) = 10800.000000,
  XTIMET(8) = 12600.000000,
  XTIMET(9) = 14400.000000,
  XTIMET(10) = 16200.000000,
  XTIMET(11) = 18000.000000,
  XTIMET(12) = 19800.000000,
  XTIMET(13) = 21600.000000,
  XTIMET(14) = 23400.000000,
  XTIMET(15) = 25200.000000,
  XTIMET(16) = 27000.000000,
  XTIMET(17) = 28800.000000,
  XTIMET(18) = 30600.000000,
  XTIMET(19) = 32400.000000,
  XTIMET(20) = 34200.000000,
  XTIMET(21) = 36000.000000,
  XTIMET(22) = 37800.000000,
  XTIMET(23) = 39600.000000,
  XTIMET(24) = 41400.000000,
  XTIMET(25) = 43200.000000,
  XTIMET(26) = 45000.000000,
  XTIMET(27) = 46800.000000,
  XTIMET(28) = 48600.000000,
  XTIMET(29) = 50400.000000,
  XTIMET(30) = 52200.000000,
  XTIMET(31) = 54000.000000,
  XTIMET(32) = 55800.000000,
  XTIMET(33) = 57600.000000,
  XTIMET(34) = 59400.000000,
  XTIMET(35) = 61200.000000,
  XTIMET(36) = 63000.000000,
  XTIMET(37) = 64800.000000,
  XTIMET(38) = 66600.000000,
  XTIMET(39) = 68400.000000,
  XTIMET(40) = 70200.000000,
  XTIMET(41) = 72000.000000,
  XTIMET(42) = 73800.000000,
  XTIMET(43) = 75600.000000,
  XTIMET(44) = 77400.000000,
  XTIMET(45) = 79200.000000,
  XTIMET(46) = 81000.000000,
  XTIMET(47) = 82800.000000,
  XTIMET(48) = 84600.000000,
  XTIMET(49) = 86400.000000,
  XTIMET(50) = 88200.000000,
  XTIMET(51) = 90000.000000,
  XTIMET(52) = 91800.000000,
  XTIMET(53) = 93600.000000,
  XTIMET(54) = 95400.000000,
  XTIMET(55) = 97200.000000,
  XTIMET(56) = 99000.000000,
  XTIMET(57) = 100800.000000,
  XTIMET(58) = 102600.000000,
  XTIMET(59) = 104400.000000,
  XTIMET(60) = 106200.000000,
  XTIMET(61) = 108000.000000,
  XTIMET(62) = 109800.000000,
  XTIMET(63) = 111600.000000,
  XTIMET(64) = 113400.000000,
  XTIMET(65) = 115200.000000,
  XTIMET(66) = 117000.000000,
  XTIMET(67) = 118800.000000,
  XTIMET(68) = 120600.000000,
  XTIMET(69) = 122400.000000,
  XTIMET(70) = 124200.000000,
  XTIMET(71) = 126000.000000,
  XTIMET(72) = 127800.000000,
  XTIMET(73) = 129600.000000,
  XTIMET(74) = 131400.000000,
  XTIMET(75) = 133200.000000,
  XTIMET(76) = 135000.000000,
  XTIMET(77) = 136800.000000,
  XTIMET(78) = 138600.000000,
  XTIMET(79) = 140400.000000,
  XTIMET(80) = 142200.000000,
  XTIMET(81) = 144000.000000,
  XTIMET(82) = 145800.000000,
  XTIMET(83) = 147600.000000,
  XTIMET(84) = 149400.000000,
  XTIMET(85) = 151200.000000,
  XTIMET(86) = 153000.000000,
  XTIMET(87) = 154800.000000,
  XTIMET(88) = 156600.000000,
  XTIMET(89) = 158400.000000,
  XTIMET(90) = 160200.000000,
  XTIMET(91) = 162000.000000,
  XTIMET(92) = 163800.000000,
  XTIMET(93) = 165600.000000,
  XTIMET(94) = 167400.000000,
  XTIMET(95) = 169200.000000,
  XTIMET(96) = 171000.000000,
  XTIMET(97) = 172800.000000,
  XTIMET(98) = 174600.000000,
  XTIMET(99) = 176400.000000,
  XTIMET(100) = 178200.000000,
  XTIMET(101) = 180000.000000,
  XTIMET(102) = 181800.000000,
  XTIMET(103) = 183600.000000,
  XTIMET(104) = 185400.000000,
  XTIMET(105) = 187200.000000,
  XTIMET(106) = 189000.000000,
  XTIMET(107) = 190800.000000,
  XTIMET(108) = 192600.000000,
  XTIMET(109) = 194400.000000,
  XTIMET(110) = 196200.000000,
  XTIMET(111) = 198000.000000,
  XTIMET(112) = 199800.000000,
  XTIMET(113) = 201600.000000,
  XTIMET(114) = 203400.000000,
  XTIMET(115) = 205200.000000,
  XTIMET(116) = 207000.000000,
  XTIMET(117) = 208800.000000,
  XTIMET(118) = 210600.000000,
  XTIMET(119) = 212400.000000,
  XTIMET(120) = 214200.000000,
  XTIMET(121) = 216000.000000,
  XTIMET(122) = 217800.000000,
  XTIMET(123) = 219600.000000,
  XTIMET(124) = 221400.000000,
  XTIMET(125) = 223200.000000,
  XTIMET(126) = 225000.000000,
  XTIMET(127) = 226800.000000,
  XTIMET(128) = 228600.000000,
  XTIMET(129) = 230400.000000,
  XTIMET(130) = 232200.000000,
  XTIMET(131) = 234000.000000,
  XTIMET(132) = 235800.000000,
  XTIMET(133) = 237600.000000,
  XTIMET(134) = 239400.000000,
  XTIMET(135) = 241200.000000,
  XTIMET(136) = 243000.000000,
  XTIMET(137) = 244800.000000,
  XTIMET(138) = 246600.000000,
  XTIMET(139) = 248400.000000,
  XTIMET(140) = 250200.000000,
  XTIMET(141) = 252000.000000,
  XTIMET(142) = 253800.000000,
  XTIMET(143) = 255600.000000,
  XTIMET(144) = 257400.000000,
  XTIMET(145) = 259200.000000,
  XTIMET(146) = 261000.000000,
  XTIMET(147) = 262800.000000,
  XTIMET(148) = 264600.000000,
  XTIMET(149) = 266400.000000,
  XTIMET(150) = 268200.000000,
  XTIMET(151) = 270000.000000,
  XTIMET(152) = 271800.000000,
  XTIMET(153) = 273600.000000,
  XTIMET(154) = 275400.000000,
  XTIMET(155) = 277200.000000,
  XTIMET(156) = 279000.000000,
  XTIMET(157) = 280800.000000,
  XTIMET(158) = 282600.000000,
  XTIMET(159) = 284400.000000,
  XTIMET(160) = 286200.000000,
  XTIMET(161) = 288000.000000,
  XTIMET(162) = 289800.000000,
  XTIMET(163) = 291600.000000,
  XTIMET(164) = 293400.000000,
  XTIMET(165) = 295200.000000,
  XTIMET(166) = 297000.000000,
  XTIMET(167) = 298800.000000,
  XTIMET(168) = 300600.000000,
  XTIMET(169) = 302400.000000,
  XTIMET(170) = 304200.000000,
  XTIMET(171) = 306000.000000,
  XTIMET(172) = 307800.000000,
  XTIMET(173) = 309600.000000,
  XTIMET(174) = 311400.000000,
  XTIMET(175) = 313200.000000,
  XTIMET(176) = 315000.000000,
  XTIMET(177) = 316800.000000,
  XTIMET(178) = 318600.000000,
  XTIMET(179) = 320400.000000,
  XTIMET(180) = 322200.000000,
  XTIMET(181) = 324000.000000,
  XTIMET(182) = 325800.000000,
  XTIMET(183) = 327600.000000,
  XTIMET(184) = 329400.000000,
  XTIMET(185) = 331200.000000,
  XTIMET(186) = 333000.000000,
  XTIMET(187) = 334800.000000,
  XTIMET(188) = 336600.000000,
  XTIMET(189) = 338400.000000,
  XTIMET(190) = 340200.000000,
  XTIMET(191) = 342000.000000,
  XTIMET(192) = 343800.000000,
  XTIMET(193) = 345600.000000,
  XSFTQ(1) = 6.811950,
  XSFTQ(2) = 18.059401,
  XSFTQ(3) = 43.264999,
  XSFTQ(4) = 117.752998,
  XSFTQ(5) = 162.425995,
  XSFTQ(6) = 205.962006,
  XSFTQ(7) = 248.190002,
  XSFTQ(8) = 289.028015,
  XSFTQ(9) = 332.313995,
  XSFTQ(10) = 362.619995,
  XSFTQ(11) = 393.407990,
  XSFTQ(12) = 400.556000,
  XSFTQ(13) = 407.867004,
  XSFTQ(14) = 408.139008,
  XSFTQ(15) = 408.415985,
  XSFTQ(16) = 405.786987,
  XSFTQ(17) = 388.454010,
  XSFTQ(18) = 370.820007,
  XSFTQ(19) = 345.208008,
  XSFTQ(20) = 318.846008,
  XSFTQ(21) = 292.134003,
  XSFTQ(22) = 242.171005,
  XSFTQ(23) = 191.535995,
  XSFTQ(24) = 121.556000,
  XSFTQ(25) = 75.586502,
  XSFTQ(26) = 29.142799,
  XSFTQ(27) = 7.943160,
  XSFTQ(28) = 0.000000,
  XSFTQ(29) = 0.000000,
  XSFTQ(30) = 0.000000,
  XSFTQ(31) = 0.000000,
  XSFTQ(32) = 0.000000,
  XSFTQ(33) = 0.000000,
  XSFTQ(34) = 0.000000,
  XSFTQ(35) = 0.000000,
  XSFTQ(36) = 0.000000,
  XSFTQ(37) = 0.000000,
  XSFTQ(38) = 0.000000,
  XSFTQ(39) = 0.000000,
  XSFTQ(40) = 0.000000,
  XSFTQ(41) = 0.000000,
  XSFTQ(42) = 0.000000,
  XSFTQ(43) = 0.000000,
  XSFTQ(44) = 0.000000,
  XSFTQ(45) = 0.000000,
  XSFTQ(46) = 0.000000,
  XSFTQ(47) = 0.000000,
  XSFTQ(48) = 0.000000,
  XSFTQ(49) = 6.811950,
  XSFTQ(50) = 18.059401,
  XSFTQ(51) = 43.264999,
  XSFTQ(52) = 117.752998,
  XSFTQ(53) = 162.425995,
  XSFTQ(54) = 205.962006,
  XSFTQ(55) = 248.190002,
  XSFTQ(56) = 289.028015,
  XSFTQ(57) = 332.313995,
  XSFTQ(58) = 362.619995,
  XSFTQ(59) = 393.407990,
  XSFTQ(60) = 400.556000,
  XSFTQ(61) = 407.867004,
  XSFTQ(62) = 408.139008,
  XSFTQ(63) = 408.415985,
  XSFTQ(64) = 405.786987,
  XSFTQ(65) = 388.454010,
  XSFTQ(66) = 370.820007,
  XSFTQ(67) = 345.208008,
  XSFTQ(68) = 318.846008,
  XSFTQ(69) = 292.134003,
  XSFTQ(70) = 242.171005,
  XSFTQ(71) = 191.535995,
  XSFTQ(72) = 121.556000,
  XSFTQ(73) = 75.586502,
  XSFTQ(74) = 29.142799,
  XSFTQ(75) = 7.943160,
  XSFTQ(76) = 0.000000,
  XSFTQ(77) = 0.000000,
  XSFTQ(78) = 0.000000,
  XSFTQ(79) = 0.000000,
  XSFTQ(80) = 0.000000,
  XSFTQ(81) = 0.000000,
  XSFTQ(82) = 0.000000,
  XSFTQ(83) = 0.000000,
  XSFTQ(84) = 0.000000,
  XSFTQ(85) = 0.000000,
  XSFTQ(86) = 0.000000,
  XSFTQ(87) = 0.000000,
  XSFTQ(88) = 0.000000,
  XSFTQ(89) = 0.000000,
  XSFTQ(90) = 0.000000,
  XSFTQ(91) = 0.000000,
  XSFTQ(92) = 0.000000,
  XSFTQ(93) = 0.000000,
  XSFTQ(94) = 0.000000,
  XSFTQ(95) = 0.000000,
  XSFTQ(96) = 0.000000,
  XSFTQ(97) = 6.811950,
  XSFTQ(98) = 18.059401,
  XSFTQ(99) = 43.264999,
  XSFTQ(100) = 117.752998,
  XSFTQ(101) = 162.425995,
  XSFTQ(102) = 205.962006,
  XSFTQ(103) = 248.190002,
  XSFTQ(104) = 289.028015,
  XSFTQ(105) = 332.313995,
  XSFTQ(106) = 362.619995,
  XSFTQ(107) = 393.407990,
  XSFTQ(108) = 400.556000,
  XSFTQ(109) = 407.867004,
  XSFTQ(110) = 408.139008,
  XSFTQ(111) = 408.415985,
  XSFTQ(112) = 405.786987,
  XSFTQ(113) = 388.454010,
  XSFTQ(114) = 370.820007,
  XSFTQ(115) = 345.208008,
  XSFTQ(116) = 318.846008,
  XSFTQ(117) = 292.134003,
  XSFTQ(118) = 242.171005,
  XSFTQ(119) = 191.535995,
  XSFTQ(120) = 121.556000,
  XSFTQ(121) = 75.586502,
  XSFTQ(122) = 29.142799,
  XSFTQ(123) = 7.943160,
  XSFTQ(124) = 0.000000,
  XSFTQ(125) = 0.000000,
  XSFTQ(126) = 0.000000,
  XSFTQ(127) = 0.000000,
  XSFTQ(128) = 0.000000,
  XSFTQ(129) = 0.000000,
  XSFTQ(130) = 0.000000,
  XSFTQ(131) = 0.000000,
  XSFTQ(132) = 0.000000,
  XSFTQ(133) = 0.000000,
  XSFTQ(134) = 0.000000,
  XSFTQ(135) = 0.000000,
  XSFTQ(136) = 0.000000,
  XSFTQ(137) = 0.000000,
  XSFTQ(138) = 0.000000,
  XSFTQ(139) = 0.000000,
  XSFTQ(140) = 0.000000,
  XSFTQ(141) = 0.000000,
  XSFTQ(142) = 0.000000,
  XSFTQ(143) = 0.000000,
  XSFTQ(144) = 0.000000,
  XSFTQ(145) = 6.811950,
  XSFTQ(146) = 18.059401,
  XSFTQ(147) = 43.264999,
  XSFTQ(148) = 117.752998,
  XSFTQ(149) = 162.425995,
  XSFTQ(150) = 205.962006,
  XSFTQ(151) = 248.190002,
  XSFTQ(152) = 289.028015,
  XSFTQ(153) = 332.313995,
  XSFTQ(154) = 362.619995,
  XSFTQ(155) = 393.407990,
  XSFTQ(156) = 400.556000,
  XSFTQ(157) = 407.867004,
  XSFTQ(158) = 408.139008,
  XSFTQ(159) = 408.415985,
  XSFTQ(160) = 405.786987,
  XSFTQ(161) = 388.454010,
  XSFTQ(162) = 370.820007,
  XSFTQ(163) = 345.208008,
  XSFTQ(164) = 318.846008,
  XSFTQ(165) = 292.134003,
  XSFTQ(166) = 242.171005,
  XSFTQ(167) = 191.535995,
  XSFTQ(168) = 121.556000,
  XSFTQ(169) = 75.586502,
  XSFTQ(170) = 29.142799,
  XSFTQ(171) = 7.943160,
  XSFTQ(172) = 0.000000,
  XSFTQ(173) = 0.000000,
  XSFTQ(174) = 0.000000,
  XSFTQ(175) = 0.000000,
  XSFTQ(176) = 0.000000,
  XSFTQ(177) = 0.000000,
  XSFTQ(178) = 0.000000,
  XSFTQ(179) = 0.000000,
  XSFTQ(180) = 0.000000,
  XSFTQ(181) = 0.000000,
  XSFTQ(182) = 0.000000,
  XSFTQ(183) = 0.000000,
  XSFTQ(184) = 0.000000,
  XSFTQ(185) = 0.000000,
  XSFTQ(186) = 0.000000,
  XSFTQ(187) = 0.000000,
  XSFTQ(188) = 0.000000,
  XSFTQ(189) = 0.000000,
  XSFTQ(190) = 0.000000,
  XSFTQ(191) = 0.000000,
  XSFTQ(192) = 0.000000,
  XSFTQ(193) = 6.811950,
  XSFTH(1) = 2.024730,
  XSFTH(2) = 6.365190,
  XSFTH(3) = 15.328200,
  XSFTH(4) = 28.510900,
  XSFTH(5) = 42.148998,
  XSFTH(6) = 58.436401,
  XSFTH(7) = 74.475899,
  XSFTH(8) = 88.671898,
  XSFTH(9) = 100.233002,
  XSFTH(10) = 111.762001,
  XSFTH(11) = 118.153000,
  XSFTH(12) = 124.061996,
  XSFTH(13) = 122.117996,
  XSFTH(14) = 120.010002,
  XSFTH(15) = 115.689003,
  XSFTH(16) = 111.362999,
  XSFTH(17) = 106.269997,
  XSFTH(18) = 97.541397,
  XSFTH(19) = 89.114502,
  XSFTH(20) = 79.705299,
  XSFTH(21) = 71.045799,
  XSFTH(22) = 62.736500,
  XSFTH(23) = 50.052799,
  XSFTH(24) = 38.041698,
  XSFTH(25) = 23.161900,
  XSFTH(26) = 14.012200,
  XSFTH(27) = 5.336500,
  XSFTH(28) = -3.007160,
  XSFTH(29) = -11.350800,
  XSFTH(30) = -14.547700,
  XSFTH(31) = -15.546400,
  XSFTH(32) = -15.995200,
  XSFTH(33) = -16.443899,
  XSFTH(34) = -16.342501,
  XSFTH(35) = -16.241199,
  XSFTH(36) = -16.139900,
  XSFTH(37) = -15.584700,
  XSFTH(38) = -15.029500,
  XSFTH(39) = -14.036400,
  XSFTH(40) = -13.056400,
  XSFTH(41) = -11.878700,
  XSFTH(42) = -10.384900,
  XSFTH(43) = -8.891010,
  XSFTH(44) = -7.397170,
  XSFTH(45) = -5.903320,
  XSFTH(46) = -4.000350,
  XSFTH(47) = -2.097370,
  XSFTH(48) = -0.194386,
  XSFTH(49) = 2.024730,
  XSFTH(50) = 6.365190,
  XSFTH(51) = 15.328200,
  XSFTH(52) = 28.510900,
  XSFTH(53) = 42.148998,
  XSFTH(54) = 58.436401,
  XSFTH(55) = 74.475899,
  XSFTH(56) = 88.671898,
  XSFTH(57) = 100.233002,
  XSFTH(58) = 111.762001,
  XSFTH(59) = 118.153000,
  XSFTH(60) = 124.061996,
  XSFTH(61) = 122.117996,
  XSFTH(62) = 120.010002,
  XSFTH(63) = 115.689003,
  XSFTH(64) = 111.362999,
  XSFTH(65) = 106.269997,
  XSFTH(66) = 97.541397,
  XSFTH(67) = 89.114502,
  XSFTH(68) = 79.705299,
  XSFTH(69) = 71.045799,
  XSFTH(70) = 62.736500,
  XSFTH(71) = 50.052799,
  XSFTH(72) = 38.041698,
  XSFTH(73) = 23.161900,
  XSFTH(74) = 14.012200,
  XSFTH(75) = 5.336500,
  XSFTH(76) = -3.007160,
  XSFTH(77) = -11.350800,
  XSFTH(78) = -14.547700,
  XSFTH(79) = -15.546400,
  XSFTH(80) = -15.995200,
  XSFTH(81) = -16.443899,
  XSFTH(82) = -16.342501,
  XSFTH(83) = -16.241199,
  XSFTH(84) = -16.139900,
  XSFTH(85) = -15.584700,
  XSFTH(86) = -15.029500,
  XSFTH(87) = -14.036400,
  XSFTH(88) = -13.056400,
  XSFTH(89) = -11.878700,
  XSFTH(90) = -10.384900,
  XSFTH(91) = -8.891010,
  XSFTH(92) = -7.397170,
  XSFTH(93) = -5.903320,
  XSFTH(94) = -4.000350,
  XSFTH(95) = -2.097370,
  XSFTH(96) = -0.194386,
  XSFTH(97) = 2.024730,
  XSFTH(98) = 6.365190,
  XSFTH(99) = 15.328200,
  XSFTH(100) = 28.510900,
  XSFTH(101) = 42.148998,
  XSFTH(102) = 58.436401,
  XSFTH(103) = 74.475899,
  XSFTH(104) = 88.671898,
  XSFTH(105) = 100.233002,
  XSFTH(106) = 111.762001,
  XSFTH(107) = 118.153000,
  XSFTH(108) = 124.061996,
  XSFTH(109) = 122.117996,
  XSFTH(110) = 120.010002,
  XSFTH(111) = 115.689003,
  XSFTH(112) = 111.362999,
  XSFTH(113) = 106.269997,
  XSFTH(114) = 97.541397,
  XSFTH(115) = 89.114502,
  XSFTH(116) = 79.705299,
  XSFTH(117) = 71.045799,
  XSFTH(118) = 62.736500,
  XSFTH(119) = 50.052799,
  XSFTH(120) = 38.041698,
  XSFTH(121) = 23.161900,
  XSFTH(122) = 14.012200,
  XSFTH(123) = 5.336500,
  XSFTH(124) = -3.007160,
  XSFTH(125) = -11.350800,
  XSFTH(126) = -14.547700,
  XSFTH(127) = -15.546400,
  XSFTH(128) = -15.995200,
  XSFTH(129) = -16.443899,
  XSFTH(130) = -16.342501,
  XSFTH(131) = -16.241199,
  XSFTH(132) = -16.139900,
  XSFTH(133) = -15.584700,
  XSFTH(134) = -15.029500,
  XSFTH(135) = -14.036400,
  XSFTH(136) = -13.056400,
  XSFTH(137) = -11.878700,
  XSFTH(138) = -10.384900,
  XSFTH(139) = -8.891010,
  XSFTH(140) = -7.397170,
  XSFTH(141) = -5.903320,
  XSFTH(142) = -4.000350,
  XSFTH(143) = -2.097370,
  XSFTH(144) = -0.194386,
  XSFTH(145) = 2.024730,
  XSFTH(146) = 6.365190,
  XSFTH(147) = 15.328200,
  XSFTH(148) = 28.510900,
  XSFTH(149) = 42.148998,
  XSFTH(150) = 58.436401,
  XSFTH(151) = 74.475899,
  XSFTH(152) = 88.671898,
  XSFTH(153) = 100.233002,
  XSFTH(154) = 111.762001,
  XSFTH(155) = 118.153000,
  XSFTH(156) = 124.061996,
  XSFTH(157) = 122.117996,
  XSFTH(158) = 120.010002,
  XSFTH(159) = 115.689003,
  XSFTH(160) = 111.362999,
  XSFTH(161) = 106.269997,
  XSFTH(162) = 97.541397,
  XSFTH(163) = 89.114502,
  XSFTH(164) = 79.705299,
  XSFTH(165) = 71.045799,
  XSFTH(166) = 62.736500,
  XSFTH(167) = 50.052799,
  XSFTH(168) = 38.041698,
  XSFTH(169) = 23.161900,
  XSFTH(170) = 14.012200,
  XSFTH(171) = 5.336500,
  XSFTH(172) = -3.007160,
  XSFTH(173) = -11.350800,
  XSFTH(174) = -14.547700,
  XSFTH(175) = -15.546400,
  XSFTH(176) = -15.995200,
  XSFTH(177) = -16.443899,
  XSFTH(178) = -16.342501,
  XSFTH(179) = -16.241199,
  XSFTH(180) = -16.139900,
  XSFTH(181) = -15.584700,
  XSFTH(182) = -15.029500,
  XSFTH(183) = -14.036400,
  XSFTH(184) = -13.056400,
  XSFTH(185) = -11.878700,
  XSFTH(186) = -10.384900,
  XSFTH(187) = -8.891010,
  XSFTH(188) = -7.397170,
  XSFTH(189) = -5.903320,
  XSFTH(190) = -4.000350,
  XSFTH(191) = -2.097370,
  XSFTH(192) = -0.194386,
  XSFTH(193) = 2.024730,
  XTSRAD(1) = 296.280000,
  XTSRAD(2) = 296.890000,
  XTSRAD(3) = 297.500000,
  XTSRAD(4) = 298.100000,
  XTSRAD(5) = 298.710000,
  XTSRAD(6) = 299.320000,
  XTSRAD(7) = 299.930000,
  XTSRAD(8) = 301.100000,
  XTSRAD(9) = 302.270000,
  XTSRAD(10) = 303.440000,
  XTSRAD(11) = 304.610000,
  XTSRAD(12) = 305.780000,
  XTSRAD(13) = 306.950000,
  XTSRAD(14) = 307.000000,
  XTSRAD(15) = 307.050000,
  XTSRAD(16) = 307.090000,
  XTSRAD(17) = 307.140000,
  XTSRAD(18) = 307.190000,
  XTSRAD(19) = 307.230000,
  XTSRAD(20) = 306.440000,
  XTSRAD(21) = 305.640000,
  XTSRAD(22) = 304.840000,
  XTSRAD(23) = 304.050000,
  XTSRAD(24) = 303.250000,
  XTSRAD(25) = 302.450000,
  XTSRAD(26) = 301.150000,
  XTSRAD(27) = 299.850000,
  XTSRAD(28) = 298.550000,
  XTSRAD(29) = 297.250000,
  XTSRAD(30) = 295.940000,
  XTSRAD(31) = 294.640000,
  XTSRAD(32) = 294.340000,
  XTSRAD(33) = 294.030000,
  XTSRAD(34) = 293.720000,
  XTSRAD(35) = 293.420000,
  XTSRAD(36) = 293.110000,
  XTSRAD(37) = 292.800000,
  XTSRAD(38) = 292.650000,
  XTSRAD(39) = 292.500000,
  XTSRAD(40) = 292.350000,
  XTSRAD(41) = 292.200000,
  XTSRAD(42) = 292.050000,
  XTSRAD(43) = 291.900000,
  XTSRAD(44) = 292.630000,
  XTSRAD(45) = 293.360000,
  XTSRAD(46) = 294.090000,
  XTSRAD(47) = 294.820000,
  XTSRAD(48) = 295.550000,
  XTSRAD(49) = 296.280000,
  XTSRAD(50) = 296.890000,
  XTSRAD(51) = 297.500000,
  XTSRAD(52) = 298.100000,
  XTSRAD(53) = 298.710000,
  XTSRAD(54) = 299.320000,
  XTSRAD(55) = 299.930000,
  XTSRAD(56) = 301.100000,
  XTSRAD(57) = 302.270000,
  XTSRAD(58) = 303.440000,
  XTSRAD(59) = 304.610000,
  XTSRAD(60) = 305.780000,
  XTSRAD(61) = 306.950000,
  XTSRAD(62) = 307.000000,
  XTSRAD(63) = 307.050000,
  XTSRAD(64) = 307.090000,
  XTSRAD(65) = 307.140000,
  XTSRAD(66) = 307.190000,
  XTSRAD(67) = 307.230000,
  XTSRAD(68) = 306.440000,
  XTSRAD(69) = 305.640000,
  XTSRAD(70) = 304.840000,
  XTSRAD(71) = 304.050000,
  XTSRAD(72) = 303.250000,
  XTSRAD(73) = 302.450000,
  XTSRAD(74) = 301.150000,
  XTSRAD(75) = 299.850000,
  XTSRAD(76) = 298.550000,
  XTSRAD(77) = 297.250000,
  XTSRAD(78) = 295.940000,
  XTSRAD(79) = 294.640000,
  XTSRAD(80) = 294.340000,
  XTSRAD(81) = 294.030000,
  XTSRAD(82) = 293.720000,
  XTSRAD(83) = 293.420000,
  XTSRAD(84) = 293.110000,
  XTSRAD(85) = 292.800000,
  XTSRAD(86) = 292.650000,
  XTSRAD(87) = 292.500000,
  XTSRAD(88) = 292.350000,
  XTSRAD(89) = 292.200000,
  XTSRAD(90) = 292.050000,
  XTSRAD(91) = 291.900000,
  XTSRAD(92) = 292.630000,
  XTSRAD(93) = 293.360000,
  XTSRAD(94) = 294.090000,
  XTSRAD(95) = 294.820000,
  XTSRAD(96) = 295.550000,
  XTSRAD(97) = 296.280000,
  XTSRAD(98) = 296.890000,
  XTSRAD(99) = 297.500000,
  XTSRAD(100) = 298.100000,
  XTSRAD(101) = 298.710000,
  XTSRAD(102) = 299.320000,
  XTSRAD(103) = 299.930000,
  XTSRAD(104) = 301.100000,
  XTSRAD(105) = 302.270000,
  XTSRAD(106) = 303.440000,
  XTSRAD(107) = 304.610000,
  XTSRAD(108) = 305.780000,
  XTSRAD(109) = 306.950000,
  XTSRAD(110) = 307.000000,
  XTSRAD(111) = 307.050000,
  XTSRAD(112) = 307.090000,
  XTSRAD(113) = 307.140000,
  XTSRAD(114) = 307.190000,
  XTSRAD(115) = 307.230000,
  XTSRAD(116) = 306.440000,
  XTSRAD(117) = 305.640000,
  XTSRAD(118) = 304.840000,
  XTSRAD(119) = 304.050000,
  XTSRAD(120) = 303.250000,
  XTSRAD(121) = 302.450000,
  XTSRAD(122) = 301.150000,
  XTSRAD(123) = 299.850000,
  XTSRAD(124) = 298.550000,
  XTSRAD(125) = 297.250000,
  XTSRAD(126) = 295.940000,
  XTSRAD(127) = 294.640000,
  XTSRAD(128) = 294.340000,
  XTSRAD(129) = 294.030000,
  XTSRAD(130) = 293.720000,
  XTSRAD(131) = 293.420000,
  XTSRAD(132) = 293.110000,
  XTSRAD(133) = 292.800000,
  XTSRAD(134) = 292.650000,
  XTSRAD(135) = 292.500000,
  XTSRAD(136) = 292.350000,
  XTSRAD(137) = 292.200000,
  XTSRAD(138) = 292.050000,
  XTSRAD(139) = 291.900000,
  XTSRAD(140) = 292.630000,
  XTSRAD(141) = 293.360000,
  XTSRAD(142) = 294.090000,
  XTSRAD(143) = 294.820000,
  XTSRAD(144) = 295.550000,
  XTSRAD(145) = 296.280000,
  XTSRAD(146) = 296.890000,
  XTSRAD(147) = 297.500000,
  XTSRAD(148) = 298.100000,
  XTSRAD(149) = 298.710000,
  XTSRAD(150) = 299.320000,
  XTSRAD(151) = 299.930000,
  XTSRAD(152) = 301.100000,
  XTSRAD(153) = 302.270000,
  XTSRAD(154) = 303.440000,
  XTSRAD(155) = 304.610000,
  XTSRAD(156) = 305.780000,
  XTSRAD(157) = 306.950000,
  XTSRAD(158) = 307.000000,
  XTSRAD(159) = 307.050000,
  XTSRAD(160) = 307.090000,
  XTSRAD(161) = 307.140000,
  XTSRAD(162) = 307.190000,
  XTSRAD(163) = 307.230000,
  XTSRAD(164) = 306.440000,
  XTSRAD(165) = 305.640000,
  XTSRAD(166) = 304.840000,
  XTSRAD(167) = 304.050000,
  XTSRAD(168) = 303.250000,
  XTSRAD(169) = 302.450000,
  XTSRAD(170) = 301.150000,
  XTSRAD(171) = 299.850000,
  XTSRAD(172) = 298.550000,
  XTSRAD(173) = 297.250000,
  XTSRAD(174) = 295.940000,
  XTSRAD(175) = 294.640000,
  XTSRAD(176) = 294.340000,
  XTSRAD(177) = 294.030000,
  XTSRAD(178) = 293.720000,
  XTSRAD(179) = 293.420000,
  XTSRAD(180) = 293.110000,
  XTSRAD(181) = 292.800000,
  XTSRAD(182) = 292.650000,
  XTSRAD(183) = 292.500000,
  XTSRAD(184) = 292.350000,
  XTSRAD(185) = 292.200000,
  XTSRAD(186) = 292.050000,
  XTSRAD(187) = 291.900000,
  XTSRAD(188) = 292.630000,
  XTSRAD(189) = 293.360000,
  XTSRAD(190) = 294.090000,
  XTSRAD(191) = 294.820000,
  XTSRAD(192) = 295.550000,
  XTSRAD(193) = 296.280000,
  XZ0 = 0.150,
  XALB = 0.170,
  XEMIS = 0.994,
  XSFCO2(1) = 0.000000,
  XSFCO2(2) = 0.000000,
  XSFCO2(3) = 0.000000,
  XSFCO2(4) = 0.000000,
  XSFCO2(5) = 0.000000,
  XSFCO2(6) = 0.000000,
  XSFCO2(7) = 0.000000,
  XSFCO2(8) = 0.000000,
  XSFCO2(9) = 0.000000,
  XSFCO2(10) = 0.000000,
  XSFCO2(11) = 0.000000,
  XSFCO2(12) = 0.000000,
  XSFCO2(13) = 0.000000,
  XSFCO2(14) = 0.000000,
  XSFCO2(15) = 0.000000,
  XSFCO2(16) = 0.000000,
  XSFCO2(17) = 0.000000,
  XSFCO2(18) = 0.000000,
  XSFCO2(19) = 0.000000,
  XSFCO2(20) = 0.000000,
  XSFCO2(21) = 0.000000,
  XSFCO2(22) = 0.000000,
  XSFCO2(23) = 0.000000,
  XSFCO2(24) = 0.000000,
  XSFCO2(25) = 0.000000,
  XSFCO2(26) = 0.000000,
  XSFCO2(27) = 0.000000,
  XSFCO2(28) = 0.000000,
  XSFCO2(29) = 0.000000,
  XSFCO2(30) = 0.000000,
  XSFCO2(31) = 0.000000,
  XSFCO2(32) = 0.000000,
  XSFCO2(33) = 0.000000,
  XSFCO2(34) = 0.000000,
  XSFCO2(35) = 0.000000,
  XSFCO2(36) = 0.000000,
  XSFCO2(37) = 0.000000,
  XSFCO2(38) = 0.000000,
  XSFCO2(39) = 0.000000,
  XSFCO2(40) = 0.000000,
  XSFCO2(41) = 0.000000,
  XSFCO2(42) = 0.000000,
  XSFCO2(43) = 0.000000,
  XSFCO2(44) = 0.000000,
  XSFCO2(45) = 0.000000,
  XSFCO2(46) = 0.000000,
  XSFCO2(47) = 0.000000,
  XSFCO2(48) = 0.000000,
  XSFCO2(49) = 0.000000,
  XSFCO2(50) = 0.000000,
  XSFCO2(51) = 0.000000,
  XSFCO2(52) = 0.000000,
  XSFCO2(53) = 0.000000,
  XSFCO2(54) = 0.000000,
  XSFCO2(55) = 0.000000,
  XSFCO2(56) = 0.000000,
  XSFCO2(57) = 0.000000,
  XSFCO2(58) = 0.000000,
  XSFCO2(59) = 0.000000,
  XSFCO2(60) = 0.000000,
  XSFCO2(61) = 0.000000,
  XSFCO2(62) = 0.000000,
  XSFCO2(63) = 0.000000,
  XSFCO2(64) = 0.000000,
  XSFCO2(65) = 0.000000,
  XSFCO2(66) = 0.000000,
  XSFCO2(67) = 0.000000,
  XSFCO2(68) = 0.000000,
  XSFCO2(69) = 0.000000,
  XSFCO2(70) = 0.000000,
  XSFCO2(71) = 0.000000,
  XSFCO2(72) = 0.000000,
  XSFCO2(73) = 0.000000,
  XSFCO2(74) = 0.000000,
  XSFCO2(75) = 0.000000,
  XSFCO2(76) = 0.000000,
  XSFCO2(77) = 0.000000,
  XSFCO2(78) = 0.000000,
  XSFCO2(79) = 0.000000,
  XSFCO2(80) = 0.000000,
  XSFCO2(81) = 0.000000,
  XSFCO2(82) = 0.000000,
  XSFCO2(83) = 0.000000,
  XSFCO2(84) = 0.000000,
  XSFCO2(85) = 0.000000,
  XSFCO2(86) = 0.000000,
  XSFCO2(87) = 0.000000,
  XSFCO2(88) = 0.000000,
  XSFCO2(89) = 0.000000,
  XSFCO2(90) = 0.000000,
  XSFCO2(91) = 0.000000,
  XSFCO2(92) = 0.000000,
  XSFCO2(93) = 0.000000,
  XSFCO2(94) = 0.000000,
  XSFCO2(95) = 0.000000,
  XSFCO2(96) = 0.000000,
  XSFCO2(97) = 0.000000,
  XSFCO2(98) = 0.000000,
  XSFCO2(99) = 0.000000,
  XSFCO2(100) = 0.000000,
  XSFCO2(101) = 0.000000,
  XSFCO2(102) = 0.000000,
  XSFCO2(103) = 0.000000,
  XSFCO2(104) = 0.000000,
  XSFCO2(105) = 0.000000,