&NAM_CONFIO
  LCDF4 = .TRUE.,
  LLFIOUT = .FALSE.,
  LLFIREAD = .FALSE.,
/ 

&NAM_CONFZ
  NZ_VERB = 0,
  NZ_PROC = 0,
  NB_PROCIO_R = 1,
  NB_PROCIO_W = 1,
  MPI_BUFFER_SIZE = 400,
  LMNH_MPI_BSEND = .TRUE.,
  LMNH_MPI_ALLTOALLV_REMAP = .FALSE.,
  NZ_SPLITTING = 10,
/ 

&NAM_LUNITn
  CINIFILE = 'init_LBA',
  CINIFILEPGD = 'init_LBA_PGD',
/ 

&NAM_DIMn_PRE
  NIMAX = 1024,
  NJMAX = 1024,
/ 

&NAM_DYNn_PRE
  CPRESOPT = 'CRESI',
  NITR = 4,
  XRELAX = 1.,
  LRES = .FALSE.,
  XRES = 1.E-07,
/ 

&NAM_GRID_PRE
  XLON0 = -63.0,
  XLAT0 = -8.0,
  XBETA = 0.,
  XRPK = 1.,
  XLONORI = 350.,
  XLATORI = 37.,
/ 

&NAM_VER_GRID
  LTHINSHELL = .TRUE.,
  NKMAX = 131,
  YZGRID_TYPE = 'MANUAL',
  ZDZGRD = 25,
  ZDZTOP = 25,
  ZZMAX_STRGRD = 0.,
  ZSTRGRD = 0.,
  ZSTRTOP = 0.,
  LSLEVE = .FALSE.,
  XLEN1 = 7500.,
  XLEN2 = 2500.,
/ 

&NAM_CONF_PRE
  LCARTESIAN = .TRUE.,
  LPACK = .TRUE.,
  CEQNSYS = 'DUR',
  NVERB = 10,
  CIDEAL = 'RSOU',
  CZS = 'FLAT',
  LBOUSS = .FALSE.,
  LPERTURB = .TRUE.,
  LFORCING = .TRUE.,
  LSHIFT = .FALSE.,
  L2D_ADV_FRC = .FALSE.,
  L2D_REL_FRC = .FALSE.,
  NHALO = 1,
  JPHEXT = 1,
  LOCEAN = .FALSE.,
/ 

&NAM_PERT_PRE
  CPERT_KIND = 'WH',
  XAMPLITH = 1.5,
  XAMPLIRV = 0.0,
  XAMPLIUV = 1.0834,
  XAMPLIWH = 0.1,
  NKWH = 2,
  LSET_RHU = .TRUE.,
  XCENTERZ = 2000.,
  XRADX = 10000.,
  XRADY = 10000.,
  XRADZ = 2000.,
  LWH_LBXU = .FALSE.,
  LWH_LBYV = .FALSE.,
/ 

&NAM_GRIDH_PRE
  XDELTAX = 200.000000,
  XDELTAY = 200.000000,
  XHMAX = 300.,
  NEXPX = 3,
  NEXPY = 1,
  XAX = 10000.,
  XAY = 10000.,
  NIZS = 5,
  NJZS = 5,
/ 

&NAM_GRn_PRE
  CSURF = 'EXTE',
/ 

&NAM_CONFn
  LUSERV = .TRUE.,
  LUSERC = .FALSE.,
  LUSERR = .FALSE.,
  LUSERI = .FALSE.,
  LUSERS = .FALSE.,
  LUSERG = .FALSE.,
  LUSERH = .FALSE.,
  LOCEAN = .FALSE.,
  LUSECI = .FALSE.,
/ 

&NAM_LBCn
  CLBCX(1) = 'CYCL',
  CLBCX(2) = 'CYCL',
  CLBCY(1) = 'CYCL',
  CLBCY(2) = 'CYCL',
  NLBLX(:) = 1,
  NLBLY(:) = 1,
  XCPHASE = 20.,
  XCPHASE_PBL = 0.,
  XPOND = 1.0,
/ 

&NAM_PGD_SCHEMES
  CSEA = 'FLUX',
  CNATURE = 'TSZ0',
/ 

&NAM_COVER
  XUNIF_COVER(1) = 1.,
  XUNIF_COVER(6) = 0.,
/ 

&NAM_SEABATHY
  XUNIF_SEABATHY = 5.,
/ 

&NAM_PREP_SEAFLUX
  XSST_UNIF = 280.,
/ 

&NAM_DATA_SEAFLUX
  LSST_DATA = .FALSE.,
  NTIME_SST = 0,
  NYEAR_SST(1) = 1980,
  NMONTH_SST(1) = 1,
  NDAY_SST(1) = 1,
  XTIME_SST(1) = 0.,
  XUNIF_SST(1) = 280.,
/ 

&NAM_FRAC
  LECOCLIMAP = .TRUE.,
  XUNIF_NATURE = 1.,
/ 

&NAM_DATA_TSZ0
  NTIME = 0,
  XUNIF_DTS(1) = -0.250,
/ 

&NAM_DATA_ISBA
  NTIME = 0,
  XUNIF_Z0(1,1) = 0,
/ 

&NAM_ISBA
  XUNIF_CLAY = 1.,
  XUNIF_SAND = 0.,
  XUNIF_RUNOFFB = 0.5,
  CISBA = '2-L',
  CPHOTO = 'NON',
  NPATCH = 1,
  NGROUND_LAYER = 2,
/ 

&NAM_PREP_SURF_ATM
  NYEAR = 1980,
  NMONTH = 1,
  NDAY = 1,
  XTIME = 0.,
/ 

&NAM_PREP_ISBA
  XHUG_SURF = 0.,
  XHUG_ROOT = 0.,
  XHUG_DEEP = 0.,
  XHUGI_SURF = 1.,
  XHUGI_ROOT = 1.,
  XHUGI_DEEP = 1.,
  XTG_SURF = 280,
  XTG_ROOT = 280,
  XTG_DEEP = 280,
  LISBA_CANOPY = .FALSE.,
  NYEAR = 1980,
  NMONTH = 1,
  NDAY = 1,
  XTIME = 0.,
/ 

&NAM_DEEPSOIL
  LPHYSDOMC = .FALSE.,
  LDEEPSOIL = .FALSE.,
/ 

ZHAT
10
30
52
76
102
130
160
192
227
266
308
352
400
450
500
550
600
650
700
750
800
850
900
950
1000
1050
1100
1150
1200
1250
1300
1350
1400
1450
1500
1550
1600
1650
1700
1750
1800
1850
1900
1950
2000
2050
2100
2150
2200
2250
2300
2350
2400
2450
2500
2555
2615
2681
2753
2832
2920
3022
3152
3302
3474
3672
3900
4150
4400
4650
4900
5150
5400
5650
5900
6150
6400
6650
6900
7150
7400
7650
7900
8150
8400
8650
8900
9150
9400
9650
9900
10150
10400
10650
10900
11150
11400
11650
11900
12150
12400
12650
12900
13150
13400
13650
13900
14150
14400
14650
14900
15150
15400
15650
15900
16150
16400
16650
16900
17150
17400
17650
17900
18150
18400
18650
18900
19150
19400
19650
19900

RSOU
1999 02 23 27000
ZUVTHDMR   
0.00 
99130.00 
300.46 
0.01648000 
46   
         464.0           0.81          -3.51
         573.0           1.17          -3.88
        1100.0           3.44          -4.77
        1653.0           3.53          -5.28
        2216.0           3.88          -5.85
        2760.0           4.09          -5.60
        3297.0           3.97          -2.67
        3824.0           1.22          -1.47
        4327.0           0.16           0.57
        4787.0          -1.22           0.89
        5242.0          -1.72          -0.08
        5686.0          -2.77           1.11
        6131.0          -2.65           2.15
        6578.0          -0.64           3.12
        6996.0          -0.07           3.22
        7431.0          -1.90           3.34
        7881.0          -2.70           1.91
        8300.0          -2.99           1.15
        8718.0          -3.66           1.01
        9149.0          -5.05          -0.57
        9611.0          -6.64          -0.67
       10084.0          -4.74           0.31
       10573.0          -5.30           2.97
       11008.0          -6.07           2.32
       11460.0          -4.26           2.66
       11966.0          -7.52           4.79
       12472.0          -8.88           3.40
       12971.0          -9.00           3.14
       13478.0          -7.77           3.93
       13971.0          -5.37           7.57
       14443.0          -3.88           2.58
       14956.0          -1.15           2.50
       15458.0          -2.36           6.44
       16019.0          -9.20           6.84
       16491.0          -8.01           0.19
       16961.0          -5.68          -2.20
       17442.0          -8.83          -3.60
       17934.0         -14.51           0.56
       18397.0         -15.55           6.68
       18851.0         -15.36           9.41
       19331.0         -17.67           7.03
       19809.0         -17.82           5.32
       20321.0         -18.94           1.14
       20813.0         -15.92          -0.65
       21329.0         -15.32           5.27
       30000.0         -15.32           5.27
46   
         464.0         300.46     0.01648000
         573.0         300.83     0.01644000
        1100.0         303.29     0.01460000
        1653.0         305.78     0.01275000
        2216.0         308.52     0.01094000
        2760.0         311.08     0.00912000
        3297.0         313.73     0.00855000
        3824.0         316.21     0.00745000
        4327.0         318.28     0.00671000
        4787.0         319.99     0.00601000
        5242.0         322.42     0.00509000
        5686.0         324.91     0.00411000
        6131.0         327.71     0.00328000
        6578.0         329.39     0.00278000
        6996.0         331.64     0.00196000
        7431.0         333.21     0.00172000
        7881.0         334.25     0.00132000
        8300.0         336.32     0.00078000
        8718.0         337.93     0.00065000
        9149.0         339.54     0.00047000
        9611.0         341.37     0.00031000
       10084.0         342.63     0.00021000
       10573.0         343.62     0.00015000
       11008.0         344.69     0.00014000
       11460.0         345.64     0.00008000
       11966.0         347.10     0.00005000
       12472.0         347.65     0.00003000
       12971.0         348.14     0.00002000
       13478.0         349.03     0.00001000
       13971.0         350.21     0.00000500
       14443.0         352.92     0.00000300
       14956.0         355.29     0.00000200
       15458.0         358.96     0.00000100
       16019.0         362.90     0.00000050
       16491.0         371.65     0.00000050
       16961.0         381.97     0.00000060
       17442.0         388.57     0.00000046
       17934.0         398.86     0.00000047
       18397.0         414.38     0.00000082
       18851.0         431.71     0.00000146
       19331.0         442.54     0.00000129
       19809.0         457.42     0.00000153
       20321.0         472.88     0.00000164
       20813.0         488.29     0.00000168
       21329.0         506.10     0.00000178
       30000.0         763.02     0.00000747

ZFRC
7
1999 02 23 27000
0.00 
99130.00 
300.46 
0.01648000 
33   
          42.5           0.00          -0.13           0.00        0.00000        0.00000  -0.0000160000   0.0000000000  0.0  0.0
         200.9           0.17          -1.06           0.00        0.00000        0.00000  -0.0000223000   0.0000000000  0.0  0.0
         456.3           0.79          -3.44           0.00        0.00000        0.00000  -0.0000242000   0.0000000000  0.0  0.0
         743.0           1.90          -4.17           0.00        0.00000        0.00000  -0.0000228000   0.0000000000  0.0  0.0
        1061.1           3.27          -4.70           0.00        0.00000        0.00000  -0.0000209000   0.0000000000  0.0  0.0
        1410.5           3.49          -5.06           0.00        0.00000        0.00000  -0.0000183000   0.0000000000  0.0  0.0
        1791.3           3.62          -5.42           0.00        0.00000        0.00000  -0.0000163000   0.0000000000  0.0  0.0
        2203.5           3.87          -5.84           0.00        0.00000        0.00000  -0.0000152000   0.0000000000  0.0  0.0
        2647.0           4.05          -5.65           0.00        0.00000        0.00000  -0.0000138000   0.0000000000  0.0  0.0
        3121.9           4.01          -3.63           0.00        0.00000        0.00000  -0.0000128000   0.0000000000  0.0  0.0
        3628.1           2.24          -1.92           0.00        0.00000        0.00000  -0.0000128000   0.0000000000  0.0  0.0
        4165.7           0.50          -0.08           0.00        0.00000        0.00000  -0.0000119000   0.0000000000  0.0  0.0
        4734.7          -1.06           0.85           0.00        0.00000        0.00000  -0.0000111000   0.0000000000  0.0  0.0
        5335.0          -1.94           0.17           0.00        0.00000        0.00000  -0.0000121000   0.0000000000  0.0  0.0
        5966.7          -2.69           1.77           0.00        0.00000        0.00000  -0.0000132000   0.0000000000  0.0  0.0
        6629.7          -0.57           3.13           0.00        0.00000        0.00000  -0.0000130000   0.0000000000  0.0  0.0
        7324.1          -1.45           3.31           0.00        0.00000        0.00000  -0.0000124000   0.0000000000  0.0  0.0
        8049.9          -2.82           1.60           0.00        0.00000        0.00000  -0.0000126000   0.0000000000  0.0  0.0
        8807.0          -3.95           0.68           0.00        0.00000        0.00000  -0.0000138000   0.0000000000  0.0  0.0
        9595.5          -6.59          -0.67           0.00        0.00000        0.00000  -0.0000145000   0.0000000000  0.0  0.0
       10415.3          -5.12           2.11           0.00        0.00000        0.00000  -0.0000147000   0.0000000000  0.0  0.0
       11266.5          -5.03           2.51           0.00        0.00000        0.00000  -0.0000151000   0.0000000000  0.0  0.0
       12149.1          -8.01           4.29           0.00        0.00000        0.00000  -0.0000110000   0.0000000000  0.0  0.0
       13063.0          -8.78           3.28           0.00        0.00000        0.00000   0.0000014000   0.0000000000  0.0  0.0
       14008.3          -5.25           7.18           0.00        0.00000        0.00000   0.0000030000   0.0000000000  0.0  0.0
       14984.9          -1.22           2.73           0.00        0.00000        0.00000   0.0000030000   0.0000000000  0.0  0.0
       15992.9          -8.88           6.82           0.00        0.00000        0.00000   0.0000037000   0.0000000000  0.0  0.0
       17032.3          -6.15          -2.41           0.00        0.00000        0.00000   0.0000016000   0.0000000000  0.0  0.0
       18103.0         -14.89           2.79           0.00        0.00000        0.00000   0.0000000000   0.0000000000  0.0  0.0
       19205.1         -17.06           7.65           0.00        0.00000        0.00000   0.0000000000   0.0000000000  0.0  0.0
       20338.5         -18.83           1.08           0.00        0.00000        0.00000   0.0000000000   0.0000000000  0.0  0.0
       21503.3         -15.32           5.27           0.00        0.00000        0.00000   0.0000000000   0.0000000000  0.0  0.0
       22699.5         -15.32           5.27           0.00        0.00000        0.00000   0.0000000000   0.0000000000  0.0  0.0
1999 02 23 30600
0.00 
99130.00 
300.46 
0.01648000 
33   
          42.5           0.00          -0.13           0.00        0.00000        0.00000  -0.0000083000   0.0000000000  0.0  0.0
         200.9           0.17          -1.06           0.00        0.00000        0.00000  -0.0000165000   0.0000000000  0.0  0.0
         456.3           0.79          -3.44           0.00        0.00000        0.00000  -0.0000192000   0.0000000000  0.0  0.0
         743.0           1.90          -4.17           0.00        0.00000        0.00000  -0.0000179000   0.0000000000  0.0  0.0
        1061.1           3.27          -4.70           0.00        0.00000        0.00000  -0.0000161000   0.0000000000  0.0  0.0
        1410.5           3.49          -5.06           0.00        0.00000        0.00000  -0.0000136000   0.0000000000  0.0  0.0
        1791.3           3.62          -5.42           0.00        0.00000        0.00000  -0.0000116000   0.0000000000  0.0  0.0
        2203.5           3.87          -5.84           0.00        0.00000        0.00000  -0.0000105000   0.0000000000  0.0  0.0
        2647.0           4.05          -5.65           0.00        0.00000        0.00000  -0.0000090000   0.0000000000  0.0  0.0
        3121.9           4.01          -3.63           0.00        0.00000        0.00000  -0.0000080000   0.0000000000  0.0  0.0
        3628.1           2.24          -1.92           0.00        0.00000        0.00000  -0.0000077000   0.0000000000  0.0  0.0
        4165.7           0.50          -0.08           0.00        0.00000        0.00000  -0.0000066000   0.0000000000  0.0  0.0
        4734.7          -1.06           0.85           0.00        0.00000        0.00000  -0.0000057000   0.0000000000  0.0  0.0
        5335.0          -1.94           0.17           0.00        0.00000        0.00000  -0.0000066000   0.0000000000  0.0  0.0
        5966.7          -2.69           1.77           0.00        0.00000        0.00000  -0.0000074000   0.0000000000  0.0  0.0
        6629.7          -0.57           3.13           0.00        0.00000        0.00000  -0.0000069000   0.0000000000  0.0  0.0
        7324.1          -1.45           3.31           0.00        0.00000        0.00000  -0.0000066000   0.0000000000  0.0  0.0
        8049.9          -2.82           1.60           0.00        0.00000        0.00000  -0.0000075000   0.0000000000  0.0  0.0
        8807.0          -3.95           0.68           0.00        0.00000        0.00000  -0.0000093000   0.0000000000  0.0  0.0
        9595.5          -6.59          -0.67           0.00        0.00000        0.00000  -0.0000106000   0.0000000000  0.0  0.0
       10415.3          -5.12           2.11           0.00        0.00000        0.00000  -0.0000114000   0.0000000000  0.0  0.0
       11266.5          -5.03           2.51           0.00        0.00000        0.00000  -0.0000124000   0.0000000000  0.0  0.0
       12149.1          -8.01           4.29           0.00        0.00000        0.00000  -0.0000092000   0.0000000000  0.0  0.0
       13063.0          -8.78           3.28           0.00        0.00000        0.00000   0.0000017000   0.0000000000  0.0  0.0
       14008.3          -5.25           7.18           0.00        0.00000        0.00000   0.0000035000   0.0000000000  0.0  0.0
       14984.9          -1.22           2.73           0.00        0.00000        0.00000   0.0000032000   0.0000000000  0.0  0.0
       15992.9          -8.88           6.82           0.00        0.00000        0.00000   0.0000041000   0.0000000000  0.0  0.0
       17032.3          -6.15          -2.41           0.00        0.00000        0.00000   0.0000016000   0.0000000000  0.0  0.0
       18103.0         -14.89           2.79           0.00        0.00000        0.00000   0.0000000000   0.0000000000  0.0  0.0
       19205.1         -17.06           7.65           0.00        0.00000        0.00000   0.0000000000   0.0000000000  0.0  0.0
       20338.5         -18.83           1.08           0.00        0.00000        0.00000   0.0000000000   0.0000000000  0.0  0.0
       21503.3         -15.32           5.27           0.00        0.00000        0.00000   0.0000000000   0.0000000000  0.0  0.0
       22699.5         -15.32           5.27           0.00        0.00000        0.00000   0.0000000000   0.0000000000  0.0  0.0
1999 02 23 34200
0.00 
99130.00 
300.46 
0.01648000 
33   
          42.5           0.00          -0.13           0.00        0.00000        0.00000  -0.0000047000   0.0000000000  0.0  0.0
         200.9           0.17          -1.06           0.00        0.00000        0.00000  -0.0000119000   0.0000000000  0.0  0.0
         456.3           0.79          -3.44           0.00        0.00000        0.00000  -0.0000142000   0.0000000000  0.0  0.0
         743.0           1.90          -4.17           0.00        0.00000        0.00000  -0.0000132000   0.0000000000  0.0  0.0
        1061.1           3.27          -4.70           0.00        0.00000        0.00000  -0.0000115000   0.0000000000  0.0  0.0
        1410.5           3.49          -5.06           0.00        0.00000        0.00000  -0.0000091000   0.0000000000  0.0  0.0
        1791.3           3.62          -5.42           0.00        0.00000        0.00000  -0.0000071000   0.0000000000  0.0  0.0
        2203.5           3.87          -5.84           0.00        0.00000        0.00000  -0.0000061000   0.0000000000  0.0  0.0
        2647.0           4.05          -5.65           0.00        0.00000        0.00000  -0.0000047000   0.0000000000  0.0  0.0
        3121.9           4.01          -3.63           0.00        0.00000        0.00000  -0.0000035000   0.0000000000  0.0  0.0
        3628.1           2.24          -1.92           0.00        0.00000        0.00000  -0.0000030000   0.0000000000  0.0  0.0
        4165.7           0.50          -0.08           0.00        0.00000        0.00000  -0.0000018000   0.0000000000  0.0  0.0
        4734.7          -1.06           0.85           0.00        0.00000        0.00000  -0.0000009000   0.0000000000  0.0  0.0
        5335.0          -1.94           0.17           0.00        0.00000        0.00000  -0.0000016000   0.0000000000  0.0  0.0
        5966.7          -2.69           1.77           0.00        0.00000        0.00000  -0.0000020000   0.0000000000  0.0  0.0
        6629.7          -0.57           3.13           0.00        0.00000        0.00000  -0.0000013000   0.0000000000  0.0  0.0
        7324.1          -1.45           3.31           0.00        0.00000        0.00000  -0.0000014000   0.0000000000  0.0  0.0
        8049.9          -2.82           1.60           0.00        0.00000        0.00000  -0.0000030000   0.0000000000  0.0  0.0
        8807.0          -3.95           0.68           0.00        0.00000        0.00000  -0.0000054000   0.0000000000  0.0  0.0
        9595.5          -6.59          -0.67           0.00        0.00000        0.00000  -0.0000071000   0.0000000000  0.0  0.0
       10415.3          -5.12           2.11           0.00        0.00000        0.00000  -0.0000085000   0.0000000000  0.0  0.0
       11266.5          -5.03           2.51           0.00        0.00000        0.00000  -0.0000101000   0.0000000000  0.0  0.0
       12149.1          -8.01           4.29           0.00        0.00000        0.00000  -0.0000076000   0.0000000000  0.0  0.0
       13063.0          -8.78           3.28           0.00        0.00000        0.00000   0.0000022000   0.0000000000  0.0  0.0
       14008.3          -5.25           7.18           0.00        0.00000        0.00000   0.0000037000   0.0000000000  0.0  0.0
       14984.9          -1.22           2.73           0.00        0.00000        0.00000   0.0000038000   0.0000000000  0.0  0.0
       15992.9          -8.88           6.82           0.00        0.00000        0.00000   0.0000042000   0.0000000000  0.0  0.0
       17032.3          -6.15          -2.41           0.00        0.00000        0.00000   0.0000019000   0.0000000000  0.0  0.0
       18103.0         -14.89           2.79           0.00        0.00000        0.00000   0.0000000000   0.0000000000  0.0  0.0
       19205.1         -17.06           7.65           0.00        0.00000        0.00000   0.0000000000   0.0000000000  0.0  0.0
       20338.5         -18.83           1.08           0.00        0.00000        0.00000   0.0000000000   0.0000000000  0.0  0.0
       21503.3         -15.32           5.27           0.00        0.00000        0.00000   0.0000000000   0.0000000000  0.0  0.0
       22699.5         -15.32           5.27           0.00        0.00000        0.00000   0.0000000000   0.0000000000  0.0  0.0
1999 02 23 37800
0.00 
99130.00 
300.46 
0.01648000 
33   
          42.5           0.00          -0.13           0.00        0.00000        0.00000  -0.0000038000   0.0000000000  0.0  0.0
         200.9           0.17          -1.06           0.00        0.00000        0.00000  -0.0000092000   0.0000000000  0.0  0.0
         456.3           0.79          -3.44           0.00        0.00000        0.00000  -0.0000107000   0.0000000000  0.0  0.0
         743.0           1.90          -4.17           0.00        0.00000        0.00000  -0.0000097000   0.0000000000  0.0  0.0
        1061.1           3.27          -4.70           0.00        0.00000        0.00000  -0.0000082000   0.0000000000  0.0  0.0
        1410.5           3.49          -5.06           0.00        0.00000        0.00000  -0.0000059000   0.0000000000  0.0  0.0
        1791.3           3.62          -5.42           0.00        0.00000        0.00000  -0.0000039000   0.0000000000  0.0  0.0
        2203.5           3.87          -5.84           0.00        0.00000        0.00000  -0.0000030000   0.0000000000  0.0  0.0
        2647.0           4.05          -5.65           0.00        0.00000        0.00000  -0.0000015000   0.0000000000  0.0  0.0
        3121.9           4.01          -3.63           0.00        0.00000        0.00000  -0.0000003000   0.0000000000  0.0  0.0
        3628.1           2.24          -1.92           0.00        0.00000        0.00000   0.0000003000   0.0000000000  0.0  0.0
        4165.7           0.50          -0.08           0.00        0.00000        0.00000   0.0000015000   0.0000000000  0.0  0.0
        4734.7          -1.06           0.85           0.00        0.00000        0.00000   0.0000024000   0.0000000000  0.0  0.0
        5335.0          -1.94           0.17           0.00        0.00000        0.00000   0.0000020000   0.0000000000  0.0  0.0
        5966.7          -2.69           1.77           0.00        0.00000        0.00000   0.0000018000   0.0000000000  0.0  0.0
        6629.7          -0.57           3.13           0.00        0.00000        0.00000   0.0000025000   0.0000000000  0.0  0.0
        7324.1          -1.45           3.31           0.00        0.00000        0.00000   0.0000021000   0.0000000000  0.0  0.0
        8049.9          -2.82           1.60           0.00        0.00000        0.00000   0.0000001000   0.0000000000  0.0  0.0
        8807.0          -3.95           0.68           0.00        0.00000        0.00000  -0.0000026000   0.0000000000  0.0  0.0
        9595.5          -6.59          -0.67           0.00        0.00000        0.00000  -0.0000048000   0.0000000000  0.0  0.0
       10415.3          -5.12           2.11           0.00        0.00000        0.00000  -0.0000065000   0.0000000000  0.0  0.0
       11266.5          -5.03           2.51           0.00        0.00000        0.00000  -0.0000085000   0.0000000000  0.0  0.0
       12149.1          -8.01           4.29           0.00        0.00000        0.00000  -0.0000066000   0.0000000000  0.0  0.0
       13063.0          -8.78           3.28           0.00        0.00000        0.00000   0.0000022000   0.0000000000  0.0  0.0
       14008.3          -5.25           7.18           0.00        0.00000        0.00000   0.0000044000   0.0000000000  0.0  0.0
       14984.9          -1.22           2.73           0.00        0.00000        0.00000   0.0000036000   0.0000000000  0.0  0.0
       15992.9          -8.88           6.82           0.00        0.00000        0.00000   0.0000043000   0.0000000000  0.0  0.0
       17032.3          -6.15          -2.41           0.00        0.00000        0.00000   0.0000020000   0.0000000000  0.0  0.0
       18103.0         -14.89           2.79           0.00        0.00000        0.00000   0.0000000000   0.0000000000  0.0  0.0
       19205.1         -17.06           7.65           0.00        0.00000        0.00000   0.0000000000   0.0000000000  0.0  0.0
       20338.5         -18.83           1.08           0.00        0.00000        0.00000   0.0000000000   0.0000000000  0.0  0.0
       21503.3         -15.32           5.27           0.00        0.00000        0.00000   0.0000000000   0.0000000000  0.0  0.0
       22699.5         -15.32           5.27           0.00        0.00000        0.00000   0.0000000000   0.0000000000  0.0  0.0
1999 02 23 41400
0.00 
99130.00 
300.46 
0.01648000 
33   
          42.5           0.00          -0.13           0.00        0.00000        0.00000  -0.0000031000   0.0000000000  0.0  0.0
         200.9           0.17          -1.06           0.00        0.00000        0.00000  -0.0000077000   0.0000000000  0.0  0.0
         456.3           0.79          -3.44           0.00        0.00000        0.00000  -0.0000088000   0.0000000000  0.0  0.0
         743.0           1.90          -4.17           0.00        0.00000        0.00000  -0.0000076000   0.0000000000  0.0  0.0
        1061.1           3.27          -4.70           0.00        0.00000        0.00000  -0.0000060000   0.0000000000  0.0  0.0
        1410.5           3.49          -5.06           0.00        0.00000        0.00000  -0.0000039000   0.0000000000  0.0  0.0
        1791.3           3.62          -5.42           0.00        0.00000        0.00000  -0.0000021000   0.0000000000  0.0  0.0
        2203.5           3.87          -5.84           0.00        0.00000        0.00000  -0.0000011000   0.0000000000  0.0  0.0
        2647.0           4.05          -5.65           0.00        0.00000        0.00000   0.0000003000   0.0000000000  0.0  0.0
        3121.9           4.01          -3.63           0.00        0.00000        0.00000   0.0000016000   0.0000000000  0.0  0.0
        3628.1           2.24          -1.92           0.00        0.00000        0.00000   0.0000022000   0.0000000000  0.0  0.0
        4165.7           0.50          -0.08           0.00        0.00000        0.00000   0.0000033000   0.0000000000  0.0  0.0
        4734.7          -1.06           0.85           0.00        0.00000        0.00000   0.0000043000   0.0000000000  0.0  0.0
        5335.0          -1.94           0.17           0.00        0.00000        0.00000   0.0000040000   0.0000000000  0.0  0.0
        5966.7          -2.69           1.77           0.00        0.00000        0.00000   0.0000040000   0.0000000000  0.0  0.0
        6629.7          -0.57           3.13           0.00        0.00000        0.00000   0.0000046000   0.0000000000  0.0  0.0
        7324.1          -1.45           3.31           0.00        0.00000        0.00000   0.0000040000   0.0000000000  0.0  0.0
        8049.9          -2.82           1.60           0.00        0.00000        0.00000   0.0000017000   0.0000000000  0.0  0.0
        8807.0          -3.95           0.68           0.00        0.00000        0.00000  -0.0000012000   0.0000000000  0.0  0.0
        9595.5          -6.59          -0.67           0.00        0.00000        0.00000  -0.0000036000   0.0000000000  0.0  0.0
       10415.3          -5.12           2.11           0.00        0.00000        0.00000  -0.0000055000   0.0000000000  0.0  0.0
       11266.5          -5.03           2.51           0.00        0.00000        0.00000  -0.0000077000   0.0000000000  0.0  0.0
       12149.1          -8.01           4.29           0.00        0.00000        0.00000  -0.0000061000   0.0000000000  0.0  0.0
       13063.0          -8.78           3.28           0.00        0.00000        0.00000   0.0000023000   0.0000000000  0.0  0.0
       14008.3          -5.25           7.18           0.00        0.00000        0.00000   0.0000045000   0.0000000000  0.0  0.0
       14984.9          -1.22           2.73           0.00        0.00000        0.00000   0.0000037000   0.0000000000  0.0  0.0
       15992.9          -8.88           6.82           0.00        0.00000        0.00000   0.0000047000   0.0000000000  0.0  0.0
       17032.3          -6.15          -2.41           0.00        0.00000        0.00000   0.0000019000   0.0000000000  0.0  0.0
       18103.0         -14.89           2.79           0.00        0.00000        0.00000   0.0000000000   0.0000000000  0.0  0.0
       19205.1         -17.06           7.65           0.00        0.00000        0.00000   0.0000000000   0.0000000000  0.0  0.0
       20338.5         -18.83           1.08           0.00        0.00000        0.00000   0.0000000000   0.0000000000  0.0  0.0
       21503.3         -15.32           5.27           0.00        0.00000        0.00000   0.0000000000   0.0000000000  0.0  0.0
       22699.5         -15.32           5.27           0.00        0.00000        0.00000   0.0000000000   0.0000000000  0.0  0.0
1999 02 23 45000
0.00 
99130.00 
300.46 
0.01648000 
33   
          42.5           0.00          -0.13           0.00        0.00000        0.00000  -0.0000032000   0.0000000000  0.0  0.0