&NAM_CONFIO
  LCDF4 = .TRUE.,
  LLFIOUT = .FALSE.,
  LLFIREAD = .FALSE.,
/ 

&NAM_CONFZ
  NZ_VERB = 0,
  NZ_PROC = 0,
  NB_PROCIO_R = 1,
  NB_PROCIO_W = 1,
  MPI_BUFFER_SIZE = 400,
  LMNH_MPI_BSEND = .TRUE.,
  LMNH_MPI_ALLTOALLV_REMAP = .FALSE.,
  NZ_SPLITTING = 10,
/ 

&NAM_LUNITn
  CINIFILE = 'ARMCU.1.SEG04.001',
  CINIFILEPGD = 'init_ARMCU_PGD',
/ 

&NAM_BACKUP
  XBAK_TIME_FREQ(1) = 3600.000000,
  XBAK_TIME_FREQ_FIRST(1) = 3600.000000,
/ 

&NAM_IDEAL_FLUX
  NFORCF = 13,
  NFORCT = 0,
  CSFTQ = 'W/m2',
  CUSTARTYPE = Z0,
  XTIMEF(1) = 0.,
  XTIMEF(2) = 1800.000000,
  XTIMEF(3) = 3600.000000,
  XTIMEF(4) = 5400.000000,
  XTIMEF(5) = 7200.000000,
  XTIMEF(6) = 9000.000000,
  XTIMEF(7) = 10800.000000,
  XTIMEF(8) = 12600.000000,
  XTIMEF(9) = 14400.000000,
  XTIMEF(10) = 16200.000000,
  XTIMEF(11) = 18000.000000,
  XTIMEF(12) = 19800.000000,
  XTIMEF(13) = 21600.000000,
  XSFTQ(1) = 452.000000,
  XSFTQ(2) = 436.000000,
  XSFTQ(3) = 420.000000,
  XSFTQ(4) = 372.000000,
  XSFTQ(5) = 324.000000,
  XSFTQ(6) = 276.000000,
  XSFTQ(7) = 228.000000,
  XSFTQ(8) = 180.000000,
  XSFTQ(9) = 135.000000,
  XSFTQ(10) = 90.000000,
  XSFTQ(11) = 45.000000,
  XSFTQ(12) = 0.000000,
  XSFTQ(13) = -45.000000,
  XSFTH(1) = 116.000000,
  XSFTH(2) = 108.000000,
  XSFTH(3) = 100.000000,
  XSFTH(4) = 78.000000,
  XSFTH(5) = 56.000000,
  XSFTH(6) = 34.000000,
  XSFTH(7) = 12.000000,
  XSFTH(8) = -10.000000,
  XSFTH(9) = -10.000000,
  XSFTH(10) = -10.000000,
  XSFTH(11) = -10.000000,
  XSFTH(12) = -10.000000,
  XSFTH(13) = -10.000000,
  XZ0(1) = 0.035000,
  XZ0(2) = 0.035000,
  XZ0(3) = 0.035000,
  XZ0(4) = 0.035000,
  XZ0(5) = 0.035000,
  XZ0(6) = 0.035000,
  XZ0(7) = 0.035000,
  XZ0(8) = 0.035000,
  XZ0(9) = 0.035000,
  XZ0(10) = 0.035000,
  XZ0(11) = 0.035000,
  XZ0(12) = 0.035000,
  XZ0(13) = 0.035000,
  XSFCO2(1) = 0.000000,
  XSFCO2(2) = 0.000000,
  XSFCO2(3) = 0.000000,
  XSFCO2(4) = 0.000000,
  XSFCO2(5) = 0.000000,
  XSFCO2(6) = 0.000000,
  XSFCO2(7) = 0.000000,
  XSFCO2(8) = 0.000000,
  XSFCO2(9) = 0.000000,
  XSFCO2(10) = 0.000000,
  XSFCO2(11) = 0.000000,
  XSFCO2(12) = 0.000000,
  XSFCO2(13) = 0.000000,
/ 

&NAM_CONF
  CCONF = 'RESTA',
  L2D = .FALSE.,
  L1D = .FALSE.,
  LFLAT = .TRUE.,
  NMODEL = 1,
  CEQNSYS = 'DUR',
  NVERB = 6,
  CEXP = 'ARMCU',
  CSEG = 'SEG05',
  LFORCING = .TRUE,
  L2D_ADV_FRC = .FALSE.,
  L2D_REL_FRC = .FALSE. ,
  XRELAX_HEIGHT_BOT = 0.,
  XRELAX_HEIGHT_TOP = 30000.,
  XRELAX_TIME = 864000.,
  LPACK = .TRUE.,
  NHALO = 1,
  CSPLIT = 'BSPLITTING',
  NZ_PROC = 0,
  NZ_SPLITTING = 10,
  LLG = .FALSE.,
  LINIT_LG = .FALSE.,
  CINIT_LG = 'FMOUT',
  LNOMIXLG = .FALSE.,
  LCHECK = .FALSE.,
/ 

&NAM_CONFn
  LUSERV = .TRUE.,
  LUSERC = .FALSE.,
  LUSERR = .FALSE.,
  LUSERI = .FALSE.,
  LUSERS = .FALSE.,
  LUSERG = .FALSE.,
  LUSERH = .FALSE.,
  LOCEAN = .FALSE.,
  LUSECI = .FALSE.,
/ 

&NAM_FRC
  LGEOST_UV_FRC = .TRUE.,
  LGEOST_TH_FRC = .FALSE.,
  LTEND_THRV_FRC = .TRUE.,
  LTEND_UV_FRC = .FALSE.,
  LVERT_MOTION_FRC = .FALSE.,
  LRELAX_THRV_FRC = .FALSE.,
  LRELAX_UV_FRC = .FALSE.,
  LRELAX_UVMEAN_FRC = .FALSE.,
  XRELAX_TIME_FRC = 10800.,
  XRELAX_HEIGHT_FRC = 0.,
  CRELAX_HEIGHT_TYPE = 'FIXE',
  LTRANS = .FALSE.,
  XUTRANS = 0.0,
  XVTRANS = 0.0,
  LPGROUND_FRC = .FALSE.,
  LDEEPOC = .FALSE.,
  XCENTX_OC = 16000.,
  XCENTY_OC = 16000.,
  XRADX_OC = 8000.,
  XRADY_OC = 8000.,
  LRELAX_UV_MEAN_FRC = .FALSE.,
/ 

&NAM_LBCn
  CLBCX(1) = 'CYCL',
  CLBCX(2) = 'CYCL',
  CLBCY(1) = 'CYCL',
  CLBCY(2) = 'CYCL',
  NLBLX(:) = 1,
  NLBLY(:) = 1,
  XCPHASE = 20.,
  XCPHASE_PBL = 0.,
  XPOND = 1.0,
/ 

&NAM_DYN
  XSEGLEN = 21600.000000,
  XASSELIN = 0.2,
  XASSELIN_SV = 0.02,
  LCORIO = .TRUE.,
  LNUMDIFU = .TRUE.,
  LNUMDIFTH = .FALSE.,
  LNUMDIFSV = .FALSE.,
  XALZBOT = 3500.000000,
  XALKTOP = 0.01,
  XALKGRD = 0.01,
  XALZBAS = 0.01,
/ 

&NAM_DYNn
  XTSTEP = 1.,
  CPRESOPT = 'ZRESI',
  NITR = 4,
  LITRADJ = .TRUE.,
  LRES = .FALSE.,
  XRES = 1.E-07,
  XRELAX = 1.,
  LVE_RELAX = .FALSE.,
  LVE_RELAX_GRD = .FALSE.,
  XT4DIFU = 300.,
  XT4DIFTH = 1800.,
  XT4DIFSV = 1800.,
/ 

&NAM_ADVn
  CUVW_ADV_SCHEME = 'CEN4TH',
  CMET_ADV_SCHEME = 'PPM_01',
  CSV_ADV_SCHEME = 'PPM_01',
  CTEMP_SCHEME = 'RKC4',
  NWENO_ORDER = 3,
  NSPLIT = 1,
  LSPLIT_CFL = .TRUE.,
  LSPLIT_WENO = .TRUE.,
  XSPLIT_CFL = 0.8,
  LCFL_WRIT = .FALSE.,
/ 

&NAM_PARAMn
  CTURB = 'TKEL',
  CRAD = 'NONE',
  CCLOUD = 'LIMA',
  CDCONV = 'NONE',
  CSCONV = 'NONE',
  CELEC = 'NONE',
  CACTCCN = 'NONE',
/ 

&NAM_TURBn
  XIMPL = 0.,
  XKEMIN = 1E-10,
  XCEDIS = 0.84,
  XCADAP = 0.5,
  CTURBLEN = 'DEAR',
  CTURBDIM = '3DIM',
  LTURB_FLX = .TRUE,
  LTURB_DIAG = .TRUE.,
  LSUBG_COND = .FALSE.,
  CSUBG_AUCV = 'NONE',
  CSUBG_AUCV_RI = 'NONE',
  LSIGMAS = .FALSE.,
  LSIG_CONV = .FALSE.,
  LRMC01 = .TRUE.,
  CTOM = 'NONE',
  VSIGQSAT = 0.02,
  CCONDENS = 'CB02',
  CLAMBDA3 = 'CB',
  CSUBG_MF_PDF = 'TRIANGLE',
  LLEONARD = .FALSE.,
  XCOEFHGRADTHL = 1.0,
  XCOEFHGRADRM = 1.0,
  XALTHGRAD = 2000.0,
  XCLDTHOLD = -1.0,
/ 

&NAM_RADn
  XDTRAD = XTSTEP,
  XDTRAD_CLONLY = XTSTEP,
  LCLEAR_SKY = .FALSE.,
  NRAD_COLNBR = 1000,
  NRAD_DIAG = 0,
  CLW = 'RRTM',
  CAER = 'SURF',
  CAOP = 'CLIM',
  CEFRADL = 'MART',
  CEFRADI = 'LIOU',
  COPWSW = 'FOUQ',
  COPISW = 'EBCU',
  COPWLW = 'SMSH',
  COPILW = 'EBCU',
  XFUDG = 1.,
  LAERO_FT = .FALSE.,
  LFIX_DAT = .FALSE.,
/ 

&NAM_PARAM_MFSHALLn
  CMF_UPDRAFT = EDKF,
  CMF_CLOUD = DIRE,
  LMIXUV = .TRUE.,
  LMF_FLX = .TRUE.,
/ 

&NAM_PARAM_ECRAD
  NSWSOLVER = 0,
  NLWSOLVER = 0,
  LSPEC_ALB = .FALSE.,
  LSPEC_EMISS = .FALSE.,
  SURF_TYPE = 'SNOW',
  NREG = 3,
  NLWSCATTERING = 2,
  NAERMACC = 0,
  NOVLP = 1,
  NLIQOPT = 3,
  NICEOPT = 3,
  NRADLP = 1,
  NRADIP = 1,
  XCLOUD_FRAC_STD = 1.0,
/ 

&NAM_PARAM_LIMA
  LPTSPLIT = .TRUE.,
  L_LFEEDBACKT = .TRUE.,
  L_NMAXITER = 5,
  L_XMRSTEP = 0.005,
  L_XTSTEP_TS = 20.,
  YNUC = 1.0,
  YALPHAC = 3.0,
  YNUR = 2.0,
  YALPHAR = 1.0,
  LACTI = .FALSE.,
  OSEDC = .TRUE.,
  OACTIT = .FALSE.,
  LADJ = .TRUE.,
  LSPRO = .FALSE.,
  LKHKO = .FALSE.,
  ODEPOC = .TRUE.,
  LBOUND = .FALSE.,
  OACTTKE = .TRUE.,
  LKESSLERAC = .TRUE.,
  NMOM_C = 1,
  NMOM_R = 1,
  OVDEPOC = 0.02,
  CINI_CCN = 'AER',
  CTYPE_CCN(:) = 'M',
  YAERDIFF = 0.0,
  YAERHEIGHT = 2000.,
  YFSOLUB_CCN = 1.0,
  YACTEMP_CCN = 280.,
  NMOD_CCN = 0,
  LSCAV = .FALSE.,
  LAERO_MASS = .FALSE.,
  LCCN_HOM = .TRUE.,
  CCCN_MODES = 'COPT',
  XCCN_CONC(:) = 300.,
  LHHONI = .FALSE.,
  LNUCL = .TRUE.,
  LSEDI = .TRUE.,
  YSNOW_T = .FALSE.,
  LMURAKAMI = .TRUE.,
  CPRISTINE_ICE_LIMA = 'PLAT',
  CHEVRIMED_ICE_LIMA = 'GRAU',
  XFACTNUC_DEP = 1.0,
  XFACTNUC_CON = 1.0,
  NMOM_I = 0,
  NMOM_S = 0,
  NMOM_G = 0,
  NMOM_H = 0,
  NMOD_IFN = 0,
  NIND_SPECIE = 1,
  LMEYERS = .FALSE.,
  LIFN_HOM = .TRUE.,
  CIFN_SPECIES = 'PHILLIPS',
  CINT_MIXING = 'DM2',
  XIFN_CONC(:) = 100.,
  NMOD_IMM = 0,
  NPHILLIPS = 8,
  LCIBU = .FALSE.,
  XNDEBRIS_CIBU = 50.0,
  LRDSF = .FALSE.,
/ 

&NAM_PARAM_C2R2
  HPARAM_CCN = 'CPB',
  HINI_CCN = 'CCN',
  XCHEN = 0.173E+09,
  XKHEN = 1.403,
  XMUHEN = 0.834,
  XBETAHEN = 25.499,
  LRAIN = .FALSE.,
  LSEDC = .FALSE.,
/ 

&NAM_BUDGET
  CBUTYPE = 'CART',
  LBU_KCP = .FALSE.,
  XBUWRI = 3600.,
  XBULEN = 3600.,
  NBUMOD = 1,
  NBUKL = 1,
  NBUKH = 160,
  NBUIL = 1,
  NBUIH = 1024,
  NBUJL = 1,
  NBUJH = 1024,
  LBU_ICP = .TRUE.,
  LBU_JCP = .TRUE.,
  NBUMASK = 1,
/ 

&NAM_LES
  LLES_MEAN = .TRUE.,
  LLES_RESOLVED = .TRUE.,
  LLES_SUBGRID = .TRUE.,
  LLES_UPDRAFT = .FALSE.,
  LLES_DOWNDRAFT = .FALSE.,
  LLES_SPECTRA = .FALSE.,
  CLES_NORM_TYPE = 'NONE',
  CBL_HEIGHT_DEF = 'KE',
  XLES_TEMP_MEAN_STEP = 3600.,
  LLES_CART_MASK = .FALSE.,
  LLES_NEB_MASK = .TRUE.,
  LLES_CORE_MASK = .TRUE.,
  LLES_MY_MASK = .FALSE.,
  LLES_CS_MASK = .TRUE.,
  XLES_TEMP_SAMPLING = 300.,
  XLES_TEMP_MEAN_START = 0.,
  XLES_TEMP_MEAN_END = 21600.000000,
/ 

&NAM_CONDSAMP
  LCONDSAMP = .TRUE.,
  NCONDSAMP = 3,
  XRADIO(:) = 900.,
  XSCAL(:) = 1.,
  XHEIGHT_BASE = 100.,
  XDEPTH_BASE = 100.,
  XHEIGHT_TOP = 100.,
  XDEPTH_TOP = 100.,
  NFINDTOP = 0,
  XTHVP = 0.25,
  LTPLUS = .TRUE.,
/ 

&NAM_OUTPUT
  XOUT_TIME_FREQ(1) = 1800.000000,
  XOUT_TIME_FREQ_FIRST(1) = 1800.000000,
  LOUT_BEG = .FALSE.,
  LOUT_END = .FALSE.,
  LOUT_REDUCE_FLOAT_PRECISION(1) = .FALSE.,
  LOUT_COMPRESS(1) = .FALSE.,
  NOUT_COMPRESS_LEVEL(1) = 4,
  COUT_VAR(1,1) = 'UT',
  COUT_VAR(1,2) = 'VT',
  COUT_VAR(1,3) = 'WT',
  COUT_VAR(1,4) = 'THT',
  COUT_VAR(1,5) = 'RVT',
  COUT_VAR(1,6) = 'RCT',
  COUT_VAR(1,7) = 'RRT',
  COUT_VAR(1,8) = 'TKET',
  COUT_VAR(1,9) = 'PABST',
  COUT_VAR(1,10) = 'RIT',
  COUT_VAR(1,11) = 'RST',
  COUT_VAR(1,12) = 'RGT',
/ 

&NAM_BU_RTH
  LBU_RTH = .TRUE.,
  CBULIST_RTH(1) = 'FRC',
  CBULIST_RTH(2) = 'ADV',
  CBULIST_RTH(3) = 'VTURB+HTURB',
  CBULIST_RTH(4) = 'ADJU',
  CBULIST_RTH(5) = 'REVA+HENU+HON+SFR+DEPS+DEPG+IMLT+BERFI+RIM+ACC+CFRZ+WETG+DRYG+GMLT+DEPI+CORR+NECON+NEADV+NETUR+NEGA',
  CBULIST_RTH(6) = 'INIF',
  CBULIST_RTH(7) = 'ENDF',
  CBULIST_RTH(8) = 'AVEF',
/ 

&NAM_BU_RRV
  LBU_RRV = .TRUE.,
  CBULIST_RRV(1) = 'FRC',
  CBULIST_RRV(2) = 'ADV',
  CBULIST_RRV(3) = 'VTURB+HTURB',
  CBULIST_RRV(4) = 'ADJU',
  CBULIST_RRV(5) = 'REVA+DEPS+DEPG+DEPI+HENU+CORR+NECON+NEADV+NETUR+NEGA',
  CBULIST_RRV(6) = 'INIF',
  CBULIST_RRV(7) = 'ENDF',
  CBULIST_RRV(8) = 'AVEF',
/ 

&NAM_BU_RU
  LBU_RU = .TRUE.,
  CBULIST_RU(1) = 'FRC',
  CBULIST_RU(2) = 'COR',
  CBULIST_RU(3) = 'ADV',
  CBULIST_RU(4) = 'VTURB+HTURB',
  CBULIST_RU(5) = 'PRES',
  CBULIST_RU(6) = 'INIF',
  CBULIST_RU(7) = 'ENDF',
  CBULIST_RU(8) = 'AVEF',
/ 

&NAM_BU_RV
  LBU_RV = .TRUE.,
  CBULIST_RV(1) = 'FRC',
  CBULIST_RV(2) = 'COR',
  CBULIST_RV(3) = 'ADV',
  CBULIST_RV(4) = 'VTURB+HTURB',
  CBULIST_RV(5) = 'PRES',
  CBULIST_RV(6) = 'INIF',
  CBULIST_RV(7) = 'ENDF',
  CBULIST_RV(8) = 'AVEF',
/ 

