&NAM_CONFIO
  LCDF4 = .TRUE.,
  LLFIOUT = .FALSE.,
  LLFIREAD = .FALSE.,
/ 

&NAM_CONFZ
  NZ_VERB = 0,
  NZ_PROC = 0,
  NB_PROCIO_R = 1,
  NB_PROCIO_W = 1,
  MPI_BUFFER_SIZE = 400,
  LMNH_MPI_BSEND = .TRUE.,
  LMNH_MPI_ALLTOALLV_REMAP = .FALSE.,
  NZ_SPLITTING = 10,
/ 

&NAM_LUNITn
  CINIFILE = 'init_AMMA',
  CINIFILEPGD = 'init_AMMA_PGD',
/ 

&NAM_DIMn_PRE
  NIMAX = 1024,
  NJMAX = 1024,
/ 

&NAM_DYNn_PRE
  CPRESOPT = 'CRESI',
  NITR = 4,
  XRELAX = 1.,
  LRES = .FALSE.,
  XRES = 1.E-07,
/ 

&NAM_GRID_PRE
  XLON0 = 2.18,
  XLAT0 = 13.47,
  XBETA = 0.,
  XRPK = 1.,
  XLONORI = 350.,
  XLATORI = 37.,
/ 

&NAM_VER_GRID
  LTHINSHELL = .TRUE.,
  NKMAX = 131,
  YZGRID_TYPE = 'MANUAL',
  ZDZGRD = 25,
  ZDZTOP = 25,
  ZZMAX_STRGRD = 0.,
  ZSTRGRD = 0.,
  ZSTRTOP = 0.,
  LSLEVE = .FALSE.,
  XLEN1 = 7500.,
  XLEN2 = 2500.,
/ 

&NAM_CONF_PRE
  LCARTESIAN = .TRUE.,
  LPACK = .TRUE.,
  CEQNSYS = 'DUR',
  NVERB = 10,
  CIDEAL = 'RSOU',
  CZS = 'FLAT',
  LBOUSS = .FALSE.,
  LPERTURB = .TRUE.,
  LFORCING = .TRUE.,
  LSHIFT = .FALSE.,
  L2D_ADV_FRC = .FALSE.,
  L2D_REL_FRC = .FALSE.,
  NHALO = 1,
  JPHEXT = 1,
  LOCEAN = .FALSE.,
/ 

&NAM_PERT_PRE
  CPERT_KIND = 'WH',
  XAMPLITH = 1.5,
  XAMPLIRV = 0.0,
  XAMPLIUV = 1.0834,
  XAMPLIWH = 0.1,
  NKWH = 2,
  LSET_RHU = .TRUE.,
  XCENTERZ = 2000.,
  XRADX = 10000.,
  XRADY = 10000.,
  XRADZ = 2000.,
  LWH_LBXU = .FALSE.,
  LWH_LBYV = .FALSE.,
/ 

&NAM_GRIDH_PRE
  XDELTAX = 200.000000,
  XDELTAY = 200.000000,
  XHMAX = 300.,
  NEXPX = 3,
  NEXPY = 1,
  XAX = 10000.,
  XAY = 10000.,
  NIZS = 5,
  NJZS = 5,
/ 

&NAM_GRn_PRE
  CSURF = 'EXTE',
/ 

&NAM_CONFn
  LUSERV = .TRUE.,
  LUSERC = .FALSE.,
  LUSERR = .FALSE.,
  LUSERI = .FALSE.,
  LUSERS = .FALSE.,
  LUSERG = .FALSE.,
  LUSERH = .FALSE.,
  LOCEAN = .FALSE.,
  LUSECI = .FALSE.,
/ 

&NAM_LBCn
  CLBCX(1) = 'CYCL',
  CLBCX(2) = 'CYCL',
  CLBCY(1) = 'CYCL',
  CLBCY(2) = 'CYCL',
  NLBLX(:) = 1,
  NLBLY(:) = 1,
  XCPHASE = 20.,
  XCPHASE_PBL = 0.,
  XPOND = 1.0,
/ 

&NAM_PGD_SCHEMES
  CSEA = 'FLUX',
  CNATURE = 'TSZ0',
/ 

&NAM_COVER
  XUNIF_COVER(1) = 1.,
  XUNIF_COVER(6) = 0.,
/ 

&NAM_SEABATHY
  XUNIF_SEABATHY = 5.,
/ 

&NAM_PREP_SEAFLUX
  XSST_UNIF = 280.,
/ 

&NAM_DATA_SEAFLUX
  LSST_DATA = .FALSE.,
  NTIME_SST = 0,
  NYEAR_SST(1) = 1980,
  NMONTH_SST(1) = 1,
  NDAY_SST(1) = 1,
  XTIME_SST(1) = 0.,
  XUNIF_SST(1) = 280.,
/ 

&NAM_FRAC
  LECOCLIMAP = .TRUE.,
  XUNIF_NATURE = 1.,
/ 

&NAM_DATA_TSZ0
  NTIME = 0,
  XUNIF_DTS(1) = -0.250,
/ 

&NAM_DATA_ISBA
  NTIME = 0,
  XUNIF_Z0(1,1) = 0,
/ 

&NAM_ISBA
  XUNIF_CLAY = 1.,
  XUNIF_SAND = 0.,
  XUNIF_RUNOFFB = 0.5,
  CISBA = '2-L',
  CPHOTO = 'NON',
  NPATCH = 1,
  NGROUND_LAYER = 2,
/ 

&NAM_PREP_SURF_ATM
  NYEAR = 1980,
  NMONTH = 1,
  NDAY = 1,
  XTIME = 0.,
/ 

&NAM_PREP_ISBA
  XHUG_SURF = 0.,
  XHUG_ROOT = 0.,
  XHUG_DEEP = 0.,
  XHUGI_SURF = 1.,
  XHUGI_ROOT = 1.,
  XHUGI_DEEP = 1.,
  XTG_SURF = 280,
  XTG_ROOT = 280,
  XTG_DEEP = 280,
  LISBA_CANOPY = .FALSE.,
  NYEAR = 1980,
  NMONTH = 1,
  NDAY = 1,
  XTIME = 0.,
/ 

&NAM_DEEPSOIL
  LPHYSDOMC = .FALSE.,
  LDEEPSOIL = .FALSE.,
/ 

ZHAT
10
30
52
76
102
130
160
192
227
266
308
352
400
450
500
550
600
650
700
750
800
850
900
950
1000
1050
1100
1150
1200
1250
1300
1350
1400
1450
1500
1550
1600
1650
1700
1750
1800
1850
1900
1950
2000
2050
2100
2150
2200
2250
2300
2350
2400
2450
2500
2555
2615
2681
2753
2832
2920
3022
3152
3302
3474
3672
3900
4150
4400
4650
4900
5150
5400
5650
5900
6150
6400
6650
6900
7150
7400
7650
7900
8150
8400
8650
8900
9150
9400
9650
9900
10150
10400
10650
10900
11150
11400
11650
11900
12150
12400
12650
12900
13150
13400
13650
13900
14150
14400
14650
14900
15150
15400
15650
15900
16150
16400
16650
16900
17150
17400
17650
17900
18150
18400
18650
18900
19150
19400
19650
19900

RSOU
2006 07 10 21600
ZUVTHDMR   
0.00 
98800.00 
300.23 
0.01801893 
36   
           0.0           1.00           1.90
         200.0           3.60           5.60
         300.0           5.50           5.80
         500.0           4.30           4.90
        1000.0           1.30           2.50
        1300.0          -0.60           1.10
        1800.0          -3.60          -1.20
        2500.0          -8.60          -1.40
        3000.0         -12.20          -1.50
        3700.0         -16.70          -1.70
        4200.0         -14.10          -2.40
        5000.0          -8.00          -3.60
        6000.0          -6.80          -1.90
        7500.0          -4.90           0.60
        8000.0          -4.30           1.40
        9000.0          -6.00           2.00
        9500.0          -7.20          -0.40
       10000.0          -8.50          -2.80
       11000.0         -11.10          -6.30
       12000.0         -12.00          -4.60
       15000.0         -12.80           0.40
       15500.0         -12.90           1.20
       16000.0         -13.00           2.00
       17000.0         -13.00           1.80
       18000.0         -13.00           1.50
       20000.0         -13.00           1.00
       21000.0         -13.00           1.00
       22000.0         -13.00           1.00
       23000.0         -13.00           1.00
       24000.0         -13.00           1.00
       25000.0         -13.00           1.00
       30000.0         -13.00           1.00
       35000.0         -13.00           1.00
       40000.0         -13.00           1.00
       45000.0         -13.00           1.00
       50000.0         -13.00           1.00
36   
           0.0         300.23     0.01801893
         200.0         301.76     0.01801893
         300.0         302.45     0.01801893
         500.0         304.07     0.01801893
        1000.0         308.36     0.01276079
        1300.0         309.34     0.00999899
        1800.0         311.31     0.00887813
        2500.0         314.09     0.00715077
        3000.0         314.61     0.00603622
        3700.0         315.33     0.00482315
        4200.0         317.30     0.00381449
        5000.0         321.72     0.00280786
        6000.0         327.02     0.00100100
        7500.0         334.42     0.00060036
        8000.0         336.91     0.00060036
        9000.0         340.08     0.00050025
        9500.0         341.36     0.00040016
       10000.0         343.04     0.00030009
       11000.0         346.43     0.00020004
       12000.0         349.27     0.00000000
       15000.0         360.87     0.00000000
       15500.0         363.29     0.00000000
       16000.0         368.71     0.00000000
       17000.0         390.18     0.00000000
       18000.0         416.17     0.00000000
       20000.0         488.17     0.00000000
       21000.0         502.42     0.00000000
       22000.0         535.53     0.00000000
       23000.0         565.51     0.00000000
       24000.0         596.42     0.00000000
       25000.0         626.98     0.00000000
       30000.0         820.91     0.00000000
       35000.0        1048.14     0.00000000
       40000.0        1335.54     0.00000000
       45000.0        1564.52     0.00000000
       50000.0        1943.15     0.00000000

ZFRC
37
2006 07 10 21600
0.00 
98800.00 
300.23 
0.01801893 
36   
           0.0           0.00           0.00           0.00        0.00000        0.00000  -0.0001100000   0.0000000800  0.0  0.0
         200.0           0.00           0.00           0.00        0.00000        0.00000  -0.0001000000   0.0000000800  0.0  0.0
         300.0           0.00           0.00           0.00        0.00000        0.00000  -0.0001000000   0.0000000700  0.0  0.0
         500.0           0.00           0.00           0.00        0.00000        0.00000  -0.0001000000   0.0000000700  0.0  0.0
        1000.0           0.00           0.00           0.00        0.00000        0.00000  -0.0000900000   0.0000000600  0.0  0.0
        1300.0           0.00           0.00           0.00        0.00000        0.00000  -0.0000600000   0.0000000400  0.0  0.0
        1800.0           0.00           0.00           0.00        0.00000        0.00000  -0.0000400000   0.0000000300  0.0  0.0
        2500.0           0.00           0.00           0.00        0.00000        0.00000  -0.0000200000   0.0000000100  0.0  0.0
        3000.0           0.00           0.00           0.00        0.00000        0.00000  -0.0000100000   0.0000000000  0.0  0.0
        3700.0           0.00           0.00           0.00        0.00000        0.00000  -0.0000100000   0.0000000000  0.0  0.0
        4200.0           0.00           0.00           0.00        0.00000        0.00000  -0.0000100000   0.0000000000  0.0  0.0
        5000.0           0.00           0.00           0.00        0.00000        0.00000  -0.0000100000   0.0000000000  0.0  0.0
        6000.0           0.00           0.00           0.00        0.00000        0.00000  -0.0000100000   0.0000000000  0.0  0.0
        7500.0           0.00           0.00           0.00        0.00000        0.00000   0.0000000000   0.0000000000  0.0  0.0
        8000.0           0.00           0.00           0.00        0.00000        0.00000   0.0000000000   0.0000000000  0.0  0.0
        9000.0           0.00           0.00           0.00        0.00000        0.00000   0.0000000000   0.0000000000  0.0  0.0
        9500.0           0.00           0.00           0.00        0.00000        0.00000   0.0000000000   0.0000000000  0.0  0.0
       10000.0           0.00           0.00           0.00        0.00000        0.00000   0.0000000000   0.0000000000  0.0  0.0
       11000.0           0.00           0.00           0.00        0.00000        0.00000   0.0000000000   0.0000000000  0.0  0.0
       12000.0           0.00           0.00           0.00        0.00000        0.00000   0.0000000000   0.0000000000  0.0  0.0
       15000.0           0.00           0.00           0.00        0.00000        0.00000   0.0000000000   0.0000000000  0.0  0.0
       15500.0           0.00           0.00           0.00        0.00000        0.00000   0.0000000000   0.0000000000  0.0  0.0
       16000.0           0.00           0.00           0.00        0.00000        0.00000   0.0000000000   0.0000000000  0.0  0.0
       17000.0           0.00           0.00           0.00        0.00000        0.00000   0.0000000000   0.0000000000  0.0  0.0
       18000.0           0.00           0.00           0.00        0.00000        0.00000   0.0000000000   0.0000000000  0.0  0.0
       20000.0           0.00           0.00           0.00        0.00000        0.00000   0.0000000000   0.0000000000  0.0  0.0
       21000.0           0.00           0.00           0.00        0.00000        0.00000   0.0000000000   0.0000000000  0.0  0.0
       22000.0           0.00           0.00           0.00        0.00000        0.00000   0.0000000000   0.0000000000  0.0  0.0
       23000.0           0.00           0.00           0.00        0.00000        0.00000   0.0000000000   0.0000000000  0.0  0.0
       24000.0           0.00           0.00           0.00        0.00000        0.00000   0.0000000000   0.0000000000  0.0  0.0
       25000.0           0.00           0.00           0.00        0.00000        0.00000   0.0000000000   0.0000000000  0.0  0.0
       30000.0           0.00           0.00           0.00        0.00000        0.00000   0.0000000000   0.0000000000  0.0  0.0
       35000.0           0.00           0.00           0.00        0.00000        0.00000   0.0000000000   0.0000000000  0.0  0.0
       40000.0           0.00           0.00           0.00        0.00000        0.00000   0.0000000000   0.0000000000  0.0  0.0
       45000.0           0.00           0.00           0.00        0.00000        0.00000   0.0000000000   0.0000000000  0.0  0.0
       50000.0           0.00           0.00           0.00        0.00000        0.00000   0.0000000000   0.0000000000  0.0  0.0
2006 07 10 23400
0.00 
98800.00 
300.23 
0.01801893 
36   
           0.0           0.00           0.00           0.00        0.00000        0.00000  -0.0000966667   0.0000000733  0.0  0.0
         200.0           0.00           0.00           0.00        0.00000        0.00000  -0.0000883333   0.0000000733  0.0  0.0
         300.0           0.00           0.00           0.00        0.00000        0.00000  -0.0000883333   0.0000000650  0.0  0.0
         500.0           0.00           0.00           0.00        0.00000        0.00000  -0.0000883333   0.0000000633  0.0  0.0
        1000.0           0.00           0.00           0.00        0.00000        0.00000  -0.0000783333   0.0000000550  0.0  0.0
        1300.0           0.00           0.00           0.00        0.00000        0.00000  -0.0000533333   0.0000000367  0.0  0.0
        1800.0           0.00           0.00           0.00        0.00000        0.00000  -0.0000350000   0.0000000267  0.0  0.0
        2500.0           0.00           0.00           0.00        0.00000        0.00000  -0.0000183333   0.0000000083  0.0  0.0
        3000.0           0.00           0.00           0.00        0.00000        0.00000  -0.0000083333   0.0000000000  0.0  0.0
        3700.0           0.00           0.00           0.00        0.00000        0.00000  -0.0000083333   0.0000000000  0.0  0.0
        4200.0           0.00           0.00           0.00        0.00000        0.00000  -0.0000083333   0.0000000000  0.0  0.0
        5000.0           0.00           0.00           0.00        0.00000        0.00000  -0.0000083333   0.0000000000  0.0  0.0
        6000.0           0.00           0.00           0.00        0.00000        0.00000  -0.0000083333   0.0000000000  0.0  0.0
        7500.0           0.00           0.00           0.00        0.00000        0.00000   0.0000000000   0.0000000000  0.0  0.0
        8000.0           0.00           0.00           0.00        0.00000        0.00000   0.0000000000   0.0000000000  0.0  0.0
        9000.0           0.00           0.00           0.00        0.00000        0.00000   0.0000000000   0.0000000000  0.0  0.0
        9500.0           0.00           0.00           0.00        0.00000        0.00000   0.0000000000   0.0000000000  0.0  0.0
       10000.0           0.00           0.00           0.00        0.00000        0.00000   0.0000000000   0.0000000000  0.0  0.0
       11000.0           0.00           0.00           0.00        0.00000        0.00000   0.0000000000   0.0000000000  0.0  0.0
       12000.0           0.00           0.00           0.00        0.00000        0.00000   0.0000000000   0.0000000000  0.0  0.0
       15000.0           0.00           0.00           0.00        0.00000        0.00000   0.0000000000   0.0000000000  0.0  0.0
       15500.0           0.00           0.00           0.00        0.00000        0.00000   0.0000000000   0.0000000000  0.0  0.0
       16000.0           0.00           0.00           0.00        0.00000        0.00000   0.0000000000   0.0000000000  0.0  0.0
       17000.0           0.00           0.00           0.00        0.00000        0.00000   0.0000000000   0.0000000000  0.0  0.0
       18000.0           0.00           0.00           0.00        0.00000        0.00000   0.0000000000   0.0000000000  0.0  0.0
       20000.0           0.00           0.00           0.00        0.00000        0.00000   0.0000000000   0.0000000000  0.0  0.0
       21000.0           0.00           0.00           0.00        0.00000        0.00000   0.0000000000   0.0000000000  0.0  0.0
       22000.0           0.00           0.00           0.00        0.00000        0.00000   0.0000000000   0.0000000000  0.0  0.0
       23000.0           0.00           0.00           0.00        0.00000        0.00000   0.0000000000   0.0000000000  0.0  0.0
       24000.0           0.00           0.00           0.00        0.00000        0.00000   0.0000000000   0.0000000000  0.0  0.0
       25000.0           0.00           0.00           0.00        0.00000        0.00000   0.0000000000   0.0000000000  0.0  0.0
       30000.0           0.00           0.00           0.00        0.00000        0.00000   0.0000000000   0.0000000000  0.0  0.0
       35000.0           0.00           0.00           0.00        0.00000        0.00000   0.0000000000   0.0000000000  0.0  0.0
       40000.0           0.00           0.00           0.00        0.00000        0.00000   0.0000000000   0.0000000000  0.0  0.0
       45000.0           0.00           0.00           0.00        0.00000        0.00000   0.0000000000   0.0000000000  0.0  0.0
       50000.0           0.00           0.00           0.00        0.00000        0.00000   0.0000000000   0.0000000000  0.0  0.0
2006 07 10 25199
0.00 
98800.00 
300.23 
0.01801893 
36   
           0.0           0.00           0.00           0.00        0.00000        0.00000  -0.0000833333   0.0000000667  0.0  0.0
         200.0           0.00           0.00           0.00        0.00000        0.00000  -0.0000766667   0.0000000667  0.0  0.0
         300.0           0.00           0.00           0.00        0.00000        0.00000  -0.0000766667   0.0000000600  0.0  0.0
         500.0           0.00           0.00           0.00        0.00000        0.00000  -0.0000766667   0.0000000567  0.0  0.0
        1000.0           0.00           0.00           0.00        0.00000        0.00000  -0.0000666667   0.0000000500  0.0  0.0
        1300.0           0.00           0.00           0.00        0.00000        0.00000  -0.0000466667   0.0000000333  0.0  0.0
        1800.0           0.00           0.00           0.00        0.00000        0.00000  -0.0000300000   0.0000000233  0.0  0.0
        2500.0           0.00           0.00           0.00        0.00000        0.00000  -0.0000166667   0.0000000067  0.0  0.0
        3000.0           0.00           0.00           0.00        0.00000        0.00000  -0.0000066667   0.0000000000  0.0  0.0
        3700.0           0.00           0.00           0.00        0.00000        0.00000  -0.0000066667   0.0000000000  0.0  0.0
        4200.0           0.00           0.00           0.00        0.00000        0.00000  -0.0000066667   0.0000000000  0.0  0.0
        5000.0           0.00           0.00           0.00        0.00000        0.00000  -0.0000066667   0.0000000000  0.0  0.0
        6000.0           0.00           0.00           0.00        0.00000        0.00000  -0.0000066667   0.0000000000  0.0  0.0
        7500.0           0.00           0.00           0.00        0.00000        0.00000   0.0000000000   0.0000000000  0.0  0.0
        8000.0           0.00           0.00           0.00        0.00000        0.00000   0.0000000000   0.0000000000  0.0  0.0
        9000.0           0.00           0.00           0.00        0.00000        0.00000   0.0000000000   0.0000000000  0.0  0.0
        9500.0           0.00           0.00           0.00        0.00000        0.00000   0.0000000000   0.0000000000  0.0  0.0
       10000.0           0.00           0.00           0.00        0.00000        0.00000   0.0000000000   0.0000000000  0.0  0.0
       11000.0           0.00           0.00           0.00        0.00000        0.00000   0.0000000000   0.0000000000  0.0  0.0
       12000.0           0.00           0.00           0.00        0.00000        0.00000   0.0000000000   0.0000000000  0.0  0.0
       15000.0           0.00           0.00           0.00        0.00000        0.00000   0.0000000000   0.0000000000  0.0  0.0
       15500.0           0.00           0.00           0.00        0.00000        0.00000   0.0000000000   0.0000000000  0.0  0.0
       16000.0           0.00           0.00           0.00        0.00000        0.00000   0.0000000000   0.0000000000  0.0  0.0
       17000.0           0.00           0.00           0.00        0.00000        0.00000   0.0000000000   0.0000000000  0.0  0.0
       18000.0           0.00           0.00           0.00        0.00000        0.00000   0.0000000000   0.0000000000  0.0  0.0
       20000.0           0.00           0.00           0.00        0.00000        0.00000   0.0000000000   0.0000000000  0.0  0.0
       21000.0           0.00           0.00           0.00        0.00000        0.00000   0.0000000000   0.0000000000  0.0  0.0
       22000.0           0.00           0.00           0.00        0.00000        0.00000   0.0000000000   0.0000000000  0.0  0.0
       23000.0           0.00           0.00           0.00        0.00000        0.00000   0.0000000000   0.0000000000  0.0  0.0
       24000.0           0.00           0.00           0.00        0.00000        0.00000   0.0000000000   0.0000000000  0.0  0.0
       25000.0           0.00           0.00           0.00        0.00000        0.00000   0.0000000000   0.0000000000  0.0  0.0
       30000.0           0.00           0.00           0.00        0.00000        0.00000   0.0000000000   0.0000000000  0.0  0.0
       35000.0           0.00           0.00           0.00        0.00000        0.00000   0.0000000000   0.0000000000  0.0  0.0
       40000.0           0.00           0.00           0.00        0.00000        0.00000   0.0000000000   0.0000000000  0.0  0.0
       45000.0           0.00           0.00           0.00        0.00000        0.00000   0.0000000000   0.0000000000  0.0  0.0
       50000.0           0.00           0.00           0.00        0.00000        0.00000   0.0000000000   0.0000000000  0.0  0.0
2006 07 10 27000
0.00 
98800.00 
300.23 
0.01801893 
36   
           0.0           0.00           0.00           0.00        0.00000        0.00000  -0.0000700000   0.0000000600  0.0  0.0
         200.0           0.00           0.00           0.00        0.00000        0.00000  -0.0000650000   0.0000000600  0.0  0.0
         300.0           0.00           0.00           0.00        0.00000        0.00000  -0.0000650000   0.0000000550  0.0  0.0
         500.0           0.00           0.00           0.00        0.00000        0.00000  -0.0000650000   0.0000000500  0.0  0.0
        1000.0           0.00           0.00           0.00        0.00000        0.00000  -0.0000550000   0.0000000450  0.0  0.0
        1300.0           0.00           0.00           0.00        0.00000        0.00000  -0.0000400000   0.0000000300  0.0  0.0
        1800.0           0.00           0.00           0.00        0.00000        0.00000  -0.0000250000   0.0000000200  0.0  0.0
        2500.0           0.00           0.00           0.00        0.00000        0.00000  -0.0000150000   0.0000000050  0.0  0.0
        3000.0           0.00           0.00           0.00        0.00000        0.00000  -0.0000050000   0.0000000000  0.0  0.0
        3700.0           0.00           0.00           0.00        0.00000        0.00000  -0.0000050000   0.0000000000  0.0  0.0
        4200.0           0.00           0.00           0.00        0.00000        0.00000  -0.0000050000   0.0000000000  0.0  0.0
        5000.0           0.00           0.00           0.00        0.00000        0.00000  -0.0000050000   0.0000000000  0.0  0.0
        6000.0           0.00           0.00           0.00        0.00000        0.00000  -0.0000050000   0.0000000000  0.0  0.0
        7500.0           0.00           0.00           0.00        0.00000        0.00000   0.0000000000   0.0000000000  0.0  0.0
        8000.0           0.00           0.00           0.00        0.00000        0.00000   0.0000000000   0.0000000000  0.0  0.0
        9000.0           0.00           0.00           0.00        0.00000        0.00000   0.0000000000   0.0000000000  0.0  0.0
        9500.0           0.00           0.00           0.00        0.00000        0.00000   0.0000000000   0.0000000000  0.0  0.0
       10000.0           0.00           0.00           0.00        0.00000        0.00000   0.0000000000   0.0000000000  0.0  0.0
       11000.0           0.00           0.00           0.00        0.00000        0.00000   0.0000000000   0.0000000000  0.0  0.0
       12000.0           0.00           0.00           0.00        0.00000        0.00000   0.0000000000   0.0000000000  0.0  0.0
       15000.0           0.00           0.00           0.00        0.00000        0.00000   0.0000000000   0.0000000000  0.0  0.0
       15500.0           0.00           0.00           0.00        0.00000        0.00000   0.0000000000   0.0000000000  0.0  0.0
       16000.0           0.00           0.00           0.00        0.00000        0.00000   0.0000000000   0.0000000000  0.0  0.0
       17000.0           0.00           0.00           0.00        0.00000        0.00000   0.0000000000   0.0000000000  0.0  0.0
       18000.0           0.00           0.00           0.00        0.00000        0.00000   0.0000000000   0.0000000000  0.0  0.0
       20000.0           0.00           0.00           0.00        0.00000        0.00000   0.0000000000   0.0000000000  0.0  0.0
       21000.0           0.00           0.00           0.00        0.00000        0.00000   0.0000000000   0.0000000000  0.0  0.0
       22000.0           0.00           0.00           0.00        0.00000        0.00000   0.0000000000   0.0000000000  0.0  0.0
       23000.0           0.00           0.00           0.00        0.00000        0.00000   0.0000000000   0.0000000000  0.0  0.0
       24000.0           0.00           0.00           0.00        0.00000        0.00000   0.0000000000   0.0000000000  0.0  0.0
       25000.0           0.00           0.00           0.00        0.00000        0.00000   0.0000000000   0.0000000000  0.0  0.0
       30000.0           0.00           0.00           0.00        0.00000        0.00000   0.0000000000   0.0000000000  0.0  0.0
       35000.0           0.00           0.00           0.00        0.00000        0.00000   0.0000000000   0.0000000000  0.0  0.0
       40000.0           0.00           0.00           0.00        0.00000        0.00000   0.0000000000   0.0000000000  0.0  0.0
       45000.0           0.00           0.00           0.00        0.00000        0.00000   0.0000000000   0.0000000000  0.0  0.0
       50000.0           0.00           0.00           0.00        0.00000        0.00000   0.0000000000   0.0000000000  0.0  0.0
2006 07 10 28800
0.00 
98800.00 
300.23 
0.01801893 
36   
           0.0           0.00           0.00           0.00        0.00000        0.00000  -0.0000566667   0.0000000533  0.0  0.0
         200.0           0.00           0.00           0.00        0.00000        0.00000  -0.0000533333   0.0000000533  0.0  0.0
         300.0           0.00           0.00           0.00        0.00000        0.00000  -0.0000533333   0.0000000500  0.0  0.0
         500.0           0.00           0.00           0.00        0.00000        0.00000  -0.0000533333   0.0000000433  0.0  0.0
        1000.0           0.00           0.00           0.00        0.00000        0.00000  -0.0000433333   0.0000000400  0.0  0.0
        1300.0           0.00           0.00           0.00        0.00000        0.00000  -0.0000333333   0.0000000267  0.0  0.0
        1800.0           0.00           0.00           0.00        0.00000        0.00000  -0.0000200000   0.0000000167  0.0  0.0
        2500.0           0.00           0.00           0.00        0.00000        0.00000  -0.0000133333   0.0000000033  0.0  0.0
        3000.0           0.00           0.00           0.00        0.00000        0.00000  -0.0000033333   0.0000000000  0.0  0.0
        3700.0           0.00           0.00           0.00        0.00000        0.00000  -0.0000033333   0.0000000000  0.0  0.0
        4200.0           0.00           0.00           0.00        0.00000        0.00000  -0.0000033333   0.0000000000  0.0  0.0
        5000.0           0.00           0.00           0.00        0.00000        0.00000  -0.0000033333   0.0000000000  0.0  0.0
        6000.0           0.00           0.00           0.00        0.00000        0.00000  -0.0000033333   0.0000000000  0.0  0.0
        7500.0           0.00           0.00           0.00        0.00000        0.00000   0.0000000000   0.0000000000  0.0  0.0
        8000.0           0.00           0.00           0.00        0.00000        0.00000   0.0000000000   0.0000000000  0.0  0.0
        9000.0           0.00           0.00           0.00        0.00000        0.00000   0.0000000000   0.0000000000  0.0  0.0
        9500.0           0.00           0.00           0.00        0.00000        0.00000   0.0000000000   0.0000000000  0.0  0.0
       10000.0           0.00           0.00           0.00        0.00000        0.00000   0.0000000000   0.0000000000  0.0  0.0
       11000.0           0.00           0.00           0.00        0.00000        0.00000   0.0000000000   0.0000000000  0.0  0.0
       12000.0           0.00           0.00           0.00        0.00000        0.00000   0.0000000000   0.0000000000  0.0  0.0
       15000.0           0.00           0.00           0.00        0.00000        0.00000   0.0000000000   0.0000000000  0.0  0.0
       15500.0           0.00           0.00           0.00        0.00000        0.00000   0.0000000000   0.0000000000  0.0  0.0
       16000.0           0.00           0.00           0.00        0.00000        0.00000   0.0000000000   0.0000000000  0.0  0.0
       17000.0           0.00           0.00           0.00        0.00000        0.00000   0.0000000000   0.0000000000  0.0  0.0
       18000.0           0.00           0.00           0.00        0.00000        0.00000   0.0000000000   0.0000000000  0.0  0.0
       20000.0           0.00           0.00           0.00        0.00000        0.00000   0.0000000000   0.0000000000  0.0  0.0
       21000.0           0.00           0.00           0.00        0.00000        0.00000   0.0000000000   0.0000000000  0.0  0.0
       22000.0           0.00           0.00           0.00        0.00000        0.00000   0.0000000000   0.0000000000  0.0  0.0
       23000.0           0.00           0.00           0.00        0.00000        0.00000   0.0000000000   0.0000000000  0.0  0.0
       24000.0           0.00           0.00           0.00        0.00000        0.00000   0.0000000000   0.0000000000  0.0  0.0