x lire qt/rv .. / theta/ta dans le format commun et en déduire THUVTHDMR

x initialiser les dictionnaires de config en fonction du type de cas
=> pour les cas de transition, dx = 200 m et lire la grille verticale

x cas de transiiton "dcv" : AMMA LBA KB et EUROCS

x reprendre et factoriser les scripts de conversion (LES/1D et dedans)

- discuter avec Benoit pour la config LIMA (config REF + sensibilités)
=> DONE
Besoin d'inclure le 'mode_lima_tendencies.f90' envoyé par email le 30 Nov 2023
et la namelist suivante:
&NAM_PARAM_LIMA
        NMOM_C=1,
        NMOM_R=1,
        NMOM_I=1,
        NMOM_S=1,
        NMOM_G=1,
        NMOD_CCN=0,
        LACTI=F,
        NMOD_IFN=0,
        LKESSLERAC=T /
        # si les cas sont chauds, possibilité de mettre NMOM_I=0, NMOM_S=0, NMOM_G=0

Tests de sensibilité conseillés: 
activation NMOM_C=2 (juste eau liquide)
activation NMOM_C=2 & NMOM_R=2 (eau liquide + rain)
autoconversion en testant celle de ICE3, celle de LIMA et celle de KHKO
Faire varier CCN a 100, 300, 1000

- déterminer les périodes de spin-up et d'intérêt pour chaque cas
  AMMA -> 18h (6h-24h) spin-up~ 3-4h - sortie fréquente a partir de 10h
  LBA -> 18h mais transition bcp plus rapide (pbmatique du spin-up??)
  KB -> 5jours 120h) spin-up ~ 6h
  EUROCS -> 18h (6h-24h) intéressant de faire le J2 aussi. spin-up ~ 3h?


- réfléchir au forçage en vent : 
  - à la surface, u* ou z0 ? => plutôt u* pour mieux contraindre les flux 
  - en volume, coriolis+géostroph ; rappel profil moyen ; chaque colonne ?
    => plutôt rappel profil moyen puis delta U à chaque colonne
=> pour l'instant on garde le forcage du papier mais intéressant de faire peut-etre en plus un cas systématiquement avec un u* prescrit
- vérifier les fichiers formats communs == les papiers de référence

- quand ustar est prescrit pas sur la même grille temporelle : si ustar est
  constant (min=max) alors on remplit tout avec la même valeur ; sinon on
  déclenche une erreur ; mais en vrai il faudrait interpoler

x shortname avec des "_" à la fin si trop court

x pas de backup ni de out en mode SCM
